MODEL 1
REMARK VINA RESULT:      -9.0      0.000      0.000
REMARK  5 active torsions:
REMARK  status: ('A' for Active; 'I' for Inactive)
REMARK    1  A    between atoms: C4_4  and  C7_7 
REMARK    2  A    between atoms: C7_7  and  C8_8 
REMARK    3  A    between atoms: C7_7  and  N3_27 
REMARK       I    between atoms: C8_8  and  N1_10 
REMARK    4  A    between atoms: N1_10  and  C9_11 
REMARK    5  A    between atoms: C14_16  and  C16_20 
ROOT
ATOM      1  C8  <0> d          51.394  49.995  40.968  0.00  0.00     0.253 C 
ATOM      2  O1  <0> d          50.826  51.012  41.306  0.00  0.00    -0.271 OA
ATOM      3  N1  <0> d          51.455  48.945  41.810  0.00  0.00    -0.344 N 
ATOM      4  H9  <0> d          51.910  48.132  41.538  0.00  0.00     0.163 HD
ENDROOT
BRANCH   3   5
ATOM      5  C9  <0> d          50.837  49.031  43.135  0.00  0.00     0.200 C 
ATOM      6  C15 <0> d          51.131  47.855  44.026  0.00  0.00     0.250 C 
ATOM      7  N2  <0> d          49.855  47.677  44.315  0.00  0.00    -0.302 N 
ATOM      8  O2  <0> d          52.151  47.287  44.354  0.00  0.00    -0.271 OA
ATOM      9  C10 <0> d          49.410  48.529  43.184  0.00  0.00     0.125 C 
ATOM     10  C14 <0> d          49.003  47.082  45.271  0.00  0.00     0.133 C 
ATOM     11  C11 <0> d          48.363  49.494  43.761  0.00  0.00     0.034 C 
ATOM     12  C12 <0> d          47.252  48.661  44.406  0.00  0.00     0.056 C 
ATOM     13  C13 <0> d          47.755  47.581  45.312  0.00  0.00     0.045 C 
ATOM     14 Cl1  <0> d          46.654  46.926  46.484  0.00  0.00    -0.086 Cl
BRANCH  10  15
ATOM     15  C16 <0> d          49.446  45.994  46.157  0.00  0.00     0.228 C 
ATOM     16  O3  <0> d          49.955  46.252  47.230  0.00  0.00    -0.643 OA
ATOM     17  O4  <0> d          49.286  44.710  45.779  0.00  0.00    -0.643 OA
ENDBRANCH  10  15
ENDBRANCH   3   5
BRANCH   1  18
ATOM     18  C7  <0> d          52.030  49.908  39.604  0.00  0.00     0.307 C 
BRANCH  18  19
ATOM     19  C4  <0> d          52.428  51.286  39.146  0.00  0.00    -0.019 A 
ATOM     20  C3  <0> d          53.567  51.882  39.655  0.00  0.00     0.010 A 
ATOM     21  C2  <0> d          53.932  53.148  39.235  0.00  0.00     0.001 A 
ATOM     22  C1  <0> d          53.160  53.816  38.304  0.00  0.00     0.000 A 
ATOM     23  C6  <0> d          52.021  53.220  37.795  0.00  0.00     0.001 A 
ATOM     24  C5  <0> d          51.658  51.953  38.211  0.00  0.00     0.010 A 
ENDBRANCH  18  19
BRANCH  18  25
ATOM     25  N3  <0> d          51.086  49.333  38.631  0.00  0.00    -0.062 N 
ATOM     26  H14 <0> d          51.206  48.322  38.585  0.00  0.00     0.275 HD
ATOM     27  H15 <0> d          50.129  49.549  38.902  0.00  0.00     0.275 HD
ATOM     28  H16 <0> d          51.270  49.735  37.704  0.00  0.00     0.275 HD
ENDBRANCH  18  25
ENDBRANCH   1  18
TORSDOF 5
ENDMDL
MODEL 2
REMARK VINA RESULT:      -8.7      3.266      3.704
REMARK  5 active torsions:
REMARK  status: ('A' for Active; 'I' for Inactive)
REMARK    1  A    between atoms: C4_4  and  C7_7 
REMARK    2  A    between atoms: C7_7  and  C8_8 
REMARK    3  A    between atoms: C7_7  and  N3_27 
REMARK       I    between atoms: C8_8  and  N1_10 
REMARK    4  A    between atoms: N1_10  and  C9_11 
REMARK    5  A    between atoms: C14_16  and  C16_20 
ROOT
ATOM      1  C8  <0> d          51.568  46.669  40.480  0.00  0.00     0.253 C 
ATOM      2  O1  <0> d          52.556  47.264  40.854  0.00  0.00    -0.271 OA
ATOM      3  N1  <0> d          50.410  46.793  41.158  0.00  0.00    -0.344 N 
ATOM      4  H9  <0> d          49.620  46.316  40.858  0.00  0.00     0.163 HD
ENDROOT
BRANCH   3   5
ATOM      5  C9  <0> d          50.343  47.646  42.346  0.00  0.00     0.200 C 
ATOM      6  C15 <0> d          50.317  46.889  43.645  0.00  0.00     0.250 C 
ATOM      7  N2  <0> d          49.263  47.552  44.082  0.00  0.00    -0.302 N 
ATOM      8  O2  <0> d          51.004  46.005  44.112  0.00  0.00    -0.271 OA
ATOM      9  C10 <0> d          48.938  48.064  42.727  0.00  0.00     0.125 C 
ATOM     10  C14 <0> d          48.573  47.889  45.267  0.00  0.00     0.133 C 
ATOM     11  C11 <0> d          48.691  49.573  42.888  0.00  0.00     0.034 C 
ATOM     12  C12 <0> d          47.581  49.765  43.923  0.00  0.00     0.056 C 
ATOM     13  C13 <0> d          47.778  48.970  45.176  0.00  0.00     0.045 C 
ATOM     14 Cl1  <0> d          46.920  49.471  46.600  0.00  0.00    -0.086 Cl
BRANCH  10  15
ATOM     15  C16 <0> d          48.711  47.114  46.510  0.00  0.00     0.228 C 
ATOM     16  O3  <0> d          49.588  47.389  47.304  0.00  0.00    -0.643 OA
ATOM     17  O4  <0> d          47.863  46.098  46.768  0.00  0.00    -0.643 OA
ENDBRANCH  10  15
ENDBRANCH   3   5
BRANCH   1  18
ATOM     18  C7  <0> d          51.638  45.790  39.258  0.00  0.00     0.307 C 
BRANCH  18  19
ATOM     19  C4  <0> d          51.107  46.544  38.066  0.00  0.00    -0.019 A 
ATOM     20  C3  <0> d          51.928  47.422  37.382  0.00  0.00     0.010 A 
ATOM     21  C2  <0> d          51.441  48.114  36.289  0.00  0.00     0.001 A 
ATOM     22  C1  <0> d          50.135  47.927  35.878  0.00  0.00     0.000 A 
ATOM     23  C6  <0> d          49.315  47.049  36.562  0.00  0.00     0.001 A 
ATOM     24  C5  <0> d          49.802  46.353  37.652  0.00  0.00     0.010 A 
ENDBRANCH  18  19
BRANCH  18  25
ATOM     25  N3  <0> d          50.832  44.572  39.451  0.00  0.00    -0.062 N 
ATOM     26  H14 <0> d          49.865  44.747  39.181  0.00  0.00     0.275 HD
ATOM     27  H15 <0> d          51.209  43.810  38.890  0.00  0.00     0.275 HD
ATOM     28  H16 <0> d          50.860  44.303  40.442  0.00  0.00     0.275 HD
ENDBRANCH  18  25
ENDBRANCH   1  18
TORSDOF 5
ENDMDL
MODEL 3
REMARK VINA RESULT:      -8.6      2.252      2.799
REMARK  5 active torsions:
REMARK  status: ('A' for Active; 'I' for Inactive)
REMARK    1  A    between atoms: C4_4  and  C7_7 
REMARK    2  A    between atoms: C7_7  and  C8_8 
REMARK    3  A    between atoms: C7_7  and  N3_27 
REMARK       I    between atoms: C8_8  and  N1_10 
REMARK    4  A    between atoms: N1_10  and  C9_11 
REMARK    5  A    between atoms: C14_16  and  C16_20 
ROOT
ATOM      1  C8  <0> d          50.667  49.705  38.795  0.00  0.00     0.253 C 
ATOM      2  O1  <0> d          51.301  48.806  38.285  0.00  0.00    -0.271 OA
ATOM      3  N1  <0> d          50.225  49.583  40.063  0.00  0.00    -0.344 N 
ATOM      4  H9  <0> d          49.718  50.303  40.469  0.00  0.00     0.163 HD
ENDROOT
BRANCH   3   5
ATOM      5  C9  <0> d          50.510  48.366  40.825  0.00  0.00     0.200 C 
ATOM      6  C15 <0> d          49.282  47.640  41.302  0.00  0.00     0.250 C 
ATOM      7  N2  <0> d          49.730  47.572  42.542  0.00  0.00    -0.302 N 
ATOM      8  O2  <0> d          48.268  47.262  40.755  0.00  0.00    -0.271 OA
ATOM      9  C10 <0> d          50.765  48.606  42.298  0.00  0.00     0.125 C 
ATOM     10  C14 <0> d          49.561  46.857  43.749  0.00  0.00     0.133 C 
ATOM     11  C11 <0> d          52.077  48.041  42.867  0.00  0.00     0.034 C 
ATOM     12  C12 <0> d          51.848  47.706  44.343  0.00  0.00     0.056 C 
ATOM     13  C13 <0> d          50.601  46.920  44.598  0.00  0.00     0.045 C 
ATOM     14 Cl1  <0> d          50.487  46.039  46.090  0.00  0.00    -0.086 Cl
BRANCH  10  15
ATOM     15  C16 <0> d          48.336  46.100  44.055  0.00  0.00     0.228 C 
ATOM     16  O3  <0> d          47.489  46.582  44.781  0.00  0.00    -0.643 OA
ATOM     17  O4  <0> d          48.154  44.873  43.528  0.00  0.00    -0.643 OA
ENDBRANCH  10  15
ENDBRANCH   3   5
BRANCH   1  18
ATOM     18  C7  <0> d          50.373  50.957  38.010  0.00  0.00     0.307 C 
BRANCH  18  19
ATOM     19  C4  <0> d          51.486  51.952  38.217  0.00  0.00    -0.019 A 
ATOM     20  C3  <0> d          52.426  51.742  39.208  0.00  0.00     0.010 A 
ATOM     21  C2  <0> d          53.446  52.655  39.399  0.00  0.00     0.001 A 
ATOM     22  C1  <0> d          53.528  53.777  38.597  0.00  0.00     0.000 A 
ATOM     23  C6  <0> d          52.588  53.987  37.605  0.00  0.00     0.001 A 
ATOM     24  C5  <0> d          51.570  53.072  37.411  0.00  0.00     0.010 A 
ENDBRANCH  18  19
BRANCH  18  25
ATOM     25  N3  <0> d          49.104  51.558  38.453  0.00  0.00    -0.062 N 
ATOM     26  H14 <0> d          48.829  51.168  39.353  0.00  0.00     0.275 HD
ATOM     27  H15 <0> d          49.206  52.568  38.538  0.00  0.00     0.275 HD
ATOM     28  H16 <0> d          48.374  51.353  37.762  0.00  0.00     0.275 HD
ENDBRANCH  18  25
ENDBRANCH   1  18
TORSDOF 5
ENDMDL
MODEL 4
REMARK VINA RESULT:      -8.4      4.058      8.084
REMARK  5 active torsions:
REMARK  status: ('A' for Active; 'I' for Inactive)
REMARK    1  A    between atoms: C4_4  and  C7_7 
REMARK    2  A    between atoms: C7_7  and  C8_8 
REMARK    3  A    between atoms: C7_7  and  N3_27 
REMARK       I    between atoms: C8_8  and  N1_10 
REMARK    4  A    between atoms: N1_10  and  C9_11 
REMARK    5  A    between atoms: C14_16  and  C16_20 
ROOT
ATOM      1  C8  <0> d          49.934  47.872  45.130  0.00  0.00     0.253 C 
ATOM      2  O1  <0> d          51.010  48.432  45.116  0.00  0.00    -0.271 OA
ATOM      3  N1  <0> d          49.221  47.753  43.992  0.00  0.00    -0.344 N 
ATOM      4  H9  <0> d          48.361  47.305  44.005  0.00  0.00     0.163 HD
ENDROOT
BRANCH   3   5
ATOM      5  C9  <0> d          49.743  48.301  42.739  0.00  0.00     0.200 C 
ATOM      6  C15 <0> d          48.788  48.202  41.581  0.00  0.00     0.250 C 
ATOM      7  N2  <0> d          49.698  47.653  40.798  0.00  0.00    -0.302 N 
ATOM      8  O2  <0> d          47.625  48.510  41.427  0.00  0.00    -0.271 OA
ATOM      9  C10 <0> d          50.584  47.326  41.943  0.00  0.00     0.125 C 
ATOM     10  C14 <0> d          50.006  47.427  39.438  0.00  0.00     0.133 C 
ATOM     11  C11 <0> d          51.991  47.801  41.543  0.00  0.00     0.034 C 
ATOM     12  C12 <0> d          52.369  47.113  40.229  0.00  0.00     0.056 C 
ATOM     13  C13 <0> d          51.303  47.185  39.181  0.00  0.00     0.045 C 
ATOM     14 Cl1  <0> d          51.771  46.931  37.528  0.00  0.00    -0.086 Cl
BRANCH  10  15
ATOM     15  C16 <0> d          48.983  47.453  38.381  0.00  0.00     0.228 C 
ATOM     16  O3  <0> d          48.355  46.447  38.118  0.00  0.00    -0.643 OA
ATOM     17  O4  <0> d          48.742  48.594  37.705  0.00  0.00    -0.643 OA
ENDBRANCH  10  15
ENDBRANCH   3   5
BRANCH   1  18
ATOM     18  C7  <0> d          49.397  47.309  46.420  0.00  0.00     0.307 C 
BRANCH  18  19
ATOM     19  C4  <0> d          48.467  46.163  46.120  0.00  0.00    -0.019 A 
ATOM     20  C3  <0> d          48.981  44.935  45.744  0.00  0.00     0.010 A 
ATOM     21  C2  <0> d          48.128  43.883  45.468  0.00  0.00     0.001 A 
ATOM     22  C1  <0> d          46.761  44.057  45.569  0.00  0.00     0.000 A 
ATOM     23  C6  <0> d          46.247  45.284  45.945  0.00  0.00     0.001 A 
ATOM     24  C5  <0> d          47.100  46.335  46.226  0.00  0.00     0.010 A 
ENDBRANCH  18  19
BRANCH  18  25
ATOM     25  N3  <0> d          48.658  48.342  47.166  0.00  0.00    -0.062 N 
ATOM     26  H14 <0> d          47.669  48.100  47.210  0.00  0.00     0.275 HD
ATOM     27  H15 <0> d          49.030  48.424  48.111  0.00  0.00     0.275 HD
ATOM     28  H16 <0> d          48.762  49.244  46.686  0.00  0.00     0.275 HD
ENDBRANCH  18  25
ENDBRANCH   1  18
TORSDOF 5
ENDMDL
MODEL 5
REMARK VINA RESULT:      -8.4      2.175      2.723
REMARK  5 active torsions:
REMARK  status: ('A' for Active; 'I' for Inactive)
REMARK    1  A    between atoms: C4_4  and  C7_7 
REMARK    2  A    between atoms: C7_7  and  C8_8 
REMARK    3  A    between atoms: C7_7  and  N3_27 
REMARK       I    between atoms: C8_8  and  N1_10 
REMARK    4  A    between atoms: N1_10  and  C9_11 
REMARK    5  A    between atoms: C14_16  and  C16_20 
ROOT
ATOM      1  C8  <0> d          50.864  49.593  39.030  0.00  0.00     0.253 C 
ATOM      2  O1  <0> d          49.710  49.894  38.812  0.00  0.00    -0.271 OA
ATOM      3  N1  <0> d          51.194  48.976  40.182  0.00  0.00    -0.344 N 
ATOM      4  H9  <0> d          52.118  48.736  40.355  0.00  0.00     0.163 HD
ENDROOT
BRANCH   3   5
ATOM      5  C9  <0> d          50.160  48.668  41.172  0.00  0.00     0.200 C 
ATOM      6  C15 <0> d          49.964  49.740  42.208  0.00  0.00     0.250 C 
ATOM      7  N2  <0> d          50.056  48.879  43.205  0.00  0.00    -0.302 N 
ATOM      8  O2  <0> d          49.789  50.939  42.150  0.00  0.00    -0.271 OA
ATOM      9  C10 <0> d          50.649  47.832  42.335  0.00  0.00     0.125 C 
ATOM     10  C14 <0> d          49.725  48.715  44.568  0.00  0.00     0.133 C 
ATOM     11  C11 <0> d          49.868  46.541  42.628  0.00  0.00     0.034 C 
ATOM     12  C12 <0> d          49.968  46.254  44.128  0.00  0.00     0.056 C 
ATOM     13  C13 <0> d          49.671  47.440  44.992  0.00  0.00     0.045 C 
ATOM     14 Cl1  <0> d          49.237  47.151  46.648  0.00  0.00    -0.086 Cl
BRANCH  10  15
ATOM     15  C16 <0> d          49.460  49.855  45.460  0.00  0.00     0.228 C 
ATOM     16  O3  <0> d          48.334  50.060  45.867  0.00  0.00    -0.643 OA
ATOM     17  O4  <0> d          50.468  50.671  45.827  0.00  0.00    -0.643 OA
ENDBRANCH  10  15
ENDBRANCH   3   5
BRANCH   1  18
ATOM     18  C7  <0> d          51.929  49.911  38.012  0.00  0.00     0.307 C 
BRANCH  18  19
ATOM     19  C4  <0> d          52.408  51.326  38.210  0.00  0.00    -0.019 A 
ATOM     20  C3  <0> d          53.352  51.607  39.179  0.00  0.00     0.010 A 
ATOM     21  C2  <0> d          53.791  52.905  39.361  0.00  0.00     0.001 A 
ATOM     22  C1  <0> d          53.288  53.922  38.573  0.00  0.00     0.000 A 
ATOM     23  C6  <0> d          52.343  53.640  37.603  0.00  0.00     0.001 A 
ATOM     24  C5  <0> d          51.908  52.342  37.417  0.00  0.00     0.010 A 
ENDBRANCH  18  19
BRANCH  18  25
ATOM     25  N3  <0> d          51.395  49.772  36.647  0.00  0.00    -0.062 N 
ATOM     26  H14 <0> d          52.100  49.361  36.036  0.00  0.00     0.275 HD
ATOM     27  H15 <0> d          50.566  49.181  36.654  0.00  0.00     0.275 HD
ATOM     28  H16 <0> d          51.141  50.700  36.288  0.00  0.00     0.275 HD
ENDBRANCH  18  25
ENDBRANCH   1  18
TORSDOF 5
ENDMDL
MODEL 6
REMARK VINA RESULT:      -8.3      3.800      5.355
REMARK  5 active torsions:
REMARK  status: ('A' for Active; 'I' for Inactive)
REMARK    1  A    between atoms: C4_4  and  C7_7 
REMARK    2  A    between atoms: C7_7  and  C8_8 
REMARK    3  A    between atoms: C7_7  and  N3_27 
REMARK       I    between atoms: C8_8  and  N1_10 
REMARK    4  A    between atoms: N1_10  and  C9_11 
REMARK    5  A    between atoms: C14_16  and  C16_20 
ROOT
ATOM      1  C8  <0> d          51.020  48.345  44.546  0.00  0.00     0.253 C 
ATOM      2  O1  <0> d          51.271  49.493  44.846  0.00  0.00    -0.271 OA
ATOM      3  N1  <0> d          49.745  47.906  44.566  0.00  0.00    -0.344 N 
ATOM      4  H9  <0> d          49.546  46.988  44.326  0.00  0.00     0.163 HD
ENDROOT
BRANCH   3   5
ATOM      5  C9  <0> d          48.663  48.815  44.951  0.00  0.00     0.200 C 
ATOM      6  C15 <0> d          47.362  48.124  45.256  0.00  0.00     0.250 C 
ATOM      7  N2  <0> d          46.680  48.923  44.456  0.00  0.00    -0.302 N 
ATOM      8  O2  <0> d          47.057  47.190  45.966  0.00  0.00    -0.271 OA
ATOM      9  C10 <0> d          47.909  49.406  43.779  0.00  0.00     0.125 C 
ATOM     10  C14 <0> d          45.371  49.389  44.201  0.00  0.00     0.133 C 
ATOM     11  C11 <0> d          47.799  50.939  43.738  0.00  0.00     0.034 C 
ATOM     12  C12 <0> d          46.495  51.303  43.025  0.00  0.00     0.056 C 
ATOM     13  C13 <0> d          45.303  50.549  43.523  0.00  0.00     0.045 C 
ATOM     14 Cl1  <0> d          43.730  51.209  43.199  0.00  0.00    -0.086 Cl
BRANCH  10  15
ATOM     15  C16 <0> d          44.172  48.660  44.642  0.00  0.00     0.228 C 
ATOM     16  O3  <0> d          43.744  48.818  45.768  0.00  0.00    -0.643 OA
ATOM     17  O4  <0> d          43.547  47.818  43.796  0.00  0.00    -0.643 OA
ENDBRANCH  10  15
ENDBRANCH   3   5
BRANCH   1  18
ATOM     18  C7  <0> d          52.134  47.411  44.151  0.00  0.00     0.307 C 
BRANCH  18  19
ATOM     19  C4  <0> d          51.959  47.000  42.712  0.00  0.00    -0.019 A 
ATOM     20  C3  <0> d          52.212  47.907  41.699  0.00  0.00     0.010 A 
ATOM     21  C2  <0> d          52.051  47.531  40.378  0.00  0.00     0.001 A 
ATOM     22  C1  <0> d          51.640  46.248  40.070  0.00  0.00     0.000 A 
ATOM     23  C6  <0> d          51.387  45.341  41.083  0.00  0.00     0.001 A 
ATOM     24  C5  <0> d          51.553  45.716  42.404  0.00  0.00     0.010 A 
ENDBRANCH  18  19
BRANCH  18  25
ATOM     25  N3  <0> d          52.122  46.206  44.997  0.00  0.00    -0.062 N 
ATOM     26  H14 <0> d          52.999  46.132  45.511  0.00  0.00     0.275 HD
ATOM     27  H15 <0> d          51.346  46.249  45.656  0.00  0.00     0.275 HD
ATOM     28  H16 <0> d          52.011  45.377  44.403  0.00  0.00     0.275 HD
ENDBRANCH  18  25
ENDBRANCH   1  18
TORSDOF 5
ENDMDL
MODEL 7
REMARK VINA RESULT:      -8.3      2.690      3.462
REMARK  5 active torsions:
REMARK  status: ('A' for Active; 'I' for Inactive)
REMARK    1  A    between atoms: C4_4  and  C7_7 
REMARK    2  A    between atoms: C7_7  and  C8_8 
REMARK    3  A    between atoms: C7_7  and  N3_27 
REMARK       I    between atoms: C8_8  and  N1_10 
REMARK    4  A    between atoms: N1_10  and  C9_11 
REMARK    5  A    between atoms: C14_16  and  C16_20 
ROOT
ATOM      1  C8  <0> d          51.521  46.884  40.464  0.00  0.00     0.253 C 
ATOM      2  O1  <0> d          52.476  47.368  41.033  0.00  0.00    -0.271 OA
ATOM      3  N1  <0> d          50.447  46.481  41.172  0.00  0.00    -0.344 N 
ATOM      4  H9  <0> d          49.684  46.095  40.715  0.00  0.00     0.163 HD
ENDROOT
BRANCH   3   5
ATOM      5  C9  <0> d          50.433  46.626  42.629  0.00  0.00     0.200 C 
ATOM      6  C15 <0> d          49.215  46.043  43.291  0.00  0.00     0.250 C 
ATOM      7  N2  <0> d          48.981  47.149  43.972  0.00  0.00    -0.302 N 
ATOM      8  O2  <0> d          48.660  44.967  43.224  0.00  0.00    -0.271 OA
ATOM      9  C10 <0> d          49.885  47.952  43.111  0.00  0.00     0.125 C 
ATOM     10  C14 <0> d          48.301  47.631  45.114  0.00  0.00     0.133 C 
ATOM     11  C11 <0> d          50.780  48.758  44.066  0.00  0.00     0.034 C 
ATOM     12  C12 <0> d          49.875  49.584  44.983  0.00  0.00     0.056 C 
ATOM     13  C13 <0> d          48.759  48.800  45.597  0.00  0.00     0.045 C 
ATOM     14 Cl1  <0> d          48.000  49.444  47.020  0.00  0.00    -0.086 Cl
BRANCH  10  15
ATOM     15  C16 <0> d          47.176  46.909  45.727  0.00  0.00     0.228 C 
ATOM     16  O3  <0> d          47.381  46.108  46.618  0.00  0.00    -0.643 OA
ATOM     17  O4  <0> d          45.918  47.137  45.302  0.00  0.00    -0.643 OA
ENDBRANCH  10  15
ENDBRANCH   3   5
BRANCH   1  18
ATOM     18  C7  <0> d          51.536  46.735  38.964  0.00  0.00     0.307 C 
BRANCH  18  19
ATOM     19  C4  <0> d          50.903  47.947  38.332  0.00  0.00    -0.019 A 
ATOM     20  C3  <0> d          49.544  47.963  38.076  0.00  0.00     0.010 A 
ATOM     21  C2  <0> d          48.962  49.075  37.495  0.00  0.00     0.001 A 
ATOM     22  C1  <0> d          49.739  50.171  37.173  0.00  0.00     0.000 A 
ATOM     23  C6  <0> d          51.097  50.155  37.429  0.00  0.00     0.001 A 
ATOM     24  C5  <0> d          51.678  49.046  38.014  0.00  0.00     0.010 A 
ENDBRANCH  18  19
BRANCH  18  25
ATOM     25  N3  <0> d          50.786  45.535  38.557  0.00  0.00    -0.062 N 
ATOM     26  H14 <0> d          50.970  44.772  39.207  0.00  0.00     0.275 HD
ATOM     27  H15 <0> d          49.787  45.735  38.544  0.00  0.00     0.275 HD
ATOM     28  H16 <0> d          51.084  45.253  37.616  0.00  0.00     0.275 HD
ENDBRANCH  18  25
ENDBRANCH   1  18
TORSDOF 5
ENDMDL
MODEL 8
REMARK VINA RESULT:      -8.3      3.353      8.211
REMARK  5 active torsions:
REMARK  status: ('A' for Active; 'I' for Inactive)
REMARK    1  A    between atoms: C4_4  and  C7_7 
REMARK    2  A    between atoms: C7_7  and  C8_8 
REMARK    3  A    between atoms: C7_7  and  N3_27 
REMARK       I    between atoms: C8_8  and  N1_10 
REMARK    4  A    between atoms: N1_10  and  C9_11 
REMARK    5  A    between atoms: C14_16  and  C16_20 
ROOT
ATOM      1  C8  <0> d          50.620  46.913  45.033  0.00  0.00     0.253 C 
ATOM      2  O1  <0> d          51.662  46.295  45.079  0.00  0.00    -0.271 OA
ATOM      3  N1  <0> d          50.281  47.582  43.912  0.00  0.00    -0.344 N 
ATOM      4  H9  <0> d          49.447  48.076  43.877  0.00  0.00     0.163 HD
ENDROOT
BRANCH   3   5
ATOM      5  C9  <0> d          51.172  47.564  42.750  0.00  0.00     0.200 C 
ATOM      6  C15 <0> d          51.045  48.770  41.861  0.00  0.00     0.250 C 
ATOM      7  N2  <0> d          50.911  48.032  40.775  0.00  0.00    -0.302 N 
ATOM      8  O2  <0> d          51.059  49.966  42.065  0.00  0.00    -0.271 OA
ATOM      9  C10 <0> d          50.620  46.807  41.561  0.00  0.00     0.125 C 
ATOM     10  C14 <0> d          51.033  48.088  39.369  0.00  0.00     0.133 C 
ATOM     11  C11 <0> d          51.514  45.701  40.977  0.00  0.00     0.034 C 
ATOM     12  C12 <0> d          51.209  45.585  39.482  0.00  0.00     0.056 C 
ATOM     13  C13 <0> d          51.193  46.897  38.764  0.00  0.00     0.045 C 
ATOM     14 Cl1  <0> d          51.386  46.882  37.038  0.00  0.00    -0.086 Cl
BRANCH  10  15
ATOM     15  C16 <0> d          50.988  49.354  38.621  0.00  0.00     0.228 C 
ATOM     16  O3  <0> d          52.005  49.996  38.449  0.00  0.00    -0.643 OA
ATOM     17  O4  <0> d          49.817  49.801  38.125  0.00  0.00    -0.643 OA
ENDBRANCH  10  15
ENDBRANCH   3   5
BRANCH   1  18
ATOM     18  C7  <0> d          49.703  46.932  46.229  0.00  0.00     0.307 C 
BRANCH  18  19
ATOM     19  C4  <0> d          48.584  45.946  46.020  0.00  0.00    -0.019 A 
ATOM     20  C3  <0> d          47.272  46.340  46.209  0.00  0.00     0.010 A 
ATOM     21  C2  <0> d          46.244  45.435  46.018  0.00  0.00     0.001 A 
ATOM     22  C1  <0> d          46.527  44.138  45.635  0.00  0.00     0.000 A 
ATOM     23  C6  <0> d          47.839  43.745  45.445  0.00  0.00     0.001 A 
ATOM     24  C5  <0> d          48.867  44.650  45.632  0.00  0.00     0.010 A 
ENDBRANCH  18  19
BRANCH  18  25
ATOM     25  N3  <0> d          49.130  48.275  46.419  0.00  0.00    -0.062 N 
ATOM     26  H14 <0> d          49.286  48.589  47.376  0.00  0.00     0.275 HD
ATOM     27  H15 <0> d          49.560  48.934  45.772  0.00  0.00     0.275 HD
ATOM     28  H16 <0> d          48.120  48.240  46.238  0.00  0.00     0.275 HD
ENDBRANCH  18  25
ENDBRANCH   1  18
TORSDOF 5
ENDMDL
MODEL 9
REMARK VINA RESULT:      -8.3      3.257      3.838
REMARK  5 active torsions:
REMARK  status: ('A' for Active; 'I' for Inactive)
REMARK    1  A    between atoms: C4_4  and  C7_7 
REMARK    2  A    between atoms: C7_7  and  C8_8 
REMARK    3  A    between atoms: C7_7  and  N3_27 
REMARK       I    between atoms: C8_8  and  N1_10 
REMARK    4  A    between atoms: N1_10  and  C9_11 
REMARK    5  A    between atoms: C14_16  and  C16_20 
ROOT
ATOM      1  C8  <0> d          50.778  49.642  39.471  0.00  0.00     0.253 C 
ATOM      2  O1  <0> d          49.727  49.379  38.927  0.00  0.00    -0.271 OA
ATOM      3  N1  <0> d          50.820  49.825  40.806  0.00  0.00    -0.344 N 
ATOM      4  H9  <0> d          51.662  50.036  41.239  0.00  0.00     0.163 HD
ENDROOT
BRANCH   3   5
ATOM      5  C9  <0> d          49.596  49.708  41.601  0.00  0.00     0.200 C 
ATOM      6  C15 <0> d          48.822  50.991  41.728  0.00  0.00     0.250 C 
ATOM      7  N2  <0> d          48.741  50.883  43.042  0.00  0.00    -0.302 N 
ATOM      8  O2  <0> d          48.425  51.812  40.929  0.00  0.00    -0.271 OA
ATOM      9  C10 <0> d          49.813  49.857  43.092  0.00  0.00     0.125 C 
ATOM     10  C14 <0> d          47.996  51.338  44.152  0.00  0.00     0.133 C 
ATOM     11  C11 <0> d          49.276  48.723  43.979  0.00  0.00     0.034 C 
ATOM     12  C12 <0> d          48.902  49.319  45.338  0.00  0.00     0.056 C 
ATOM     13  C13 <0> d          48.073  50.561  45.246  0.00  0.00     0.045 C 
ATOM     14 Cl1  <0> d          47.157  51.032  46.644  0.00  0.00    -0.086 Cl
BRANCH  10  15
ATOM     15  C16 <0> d          47.195  52.572  44.115  0.00  0.00     0.228 C 
ATOM     16  O3  <0> d          47.725  53.647  44.316  0.00  0.00    -0.643 OA
ATOM     17  O4  <0> d          45.874  52.510  43.856  0.00  0.00    -0.643 OA
ENDBRANCH  10  15
ENDBRANCH   3   5
BRANCH   1  18
ATOM     18  C7  <0> d          52.038  49.763  38.652  0.00  0.00     0.307 C 
BRANCH  18  19
ATOM     19  C4  <0> d          52.467  51.207  38.600  0.00  0.00    -0.019 A 
ATOM     20  C3  <0> d          53.499  51.651  39.406  0.00  0.00     0.010 A 
ATOM     21  C2  <0> d          53.892  52.976  39.360  0.00  0.00     0.001 A 
ATOM     22  C1  <0> d          53.255  53.855  38.506  0.00  0.00     0.000 A 
ATOM     23  C6  <0> d          52.223  53.411  37.700  0.00  0.00     0.001 A 
ATOM     24  C5  <0> d          51.833  52.086  37.743  0.00  0.00     0.010 A 
ENDBRANCH  18  19
BRANCH  18  25
ATOM     25  N3  <0> d          51.809  49.282  37.280  0.00  0.00    -0.062 N 
ATOM     26  H14 <0> d          51.723  48.266  37.276  0.00  0.00     0.275 HD
ATOM     27  H15 <0> d          50.959  49.696  36.901  0.00  0.00     0.275 HD
ATOM     28  H16 <0> d          52.605  49.552  36.690  0.00  0.00     0.275 HD
ENDBRANCH  18  25
ENDBRANCH   1  18
TORSDOF 5
ENDMDL
MODEL 10
REMARK VINA RESULT:      -8.2      3.813      4.900
REMARK  5 active torsions:
REMARK  status: ('A' for Active; 'I' for Inactive)
REMARK    1  A    between atoms: C4_4  and  C7_7 
REMARK    2  A    between atoms: C7_7  and  C8_8 
REMARK    3  A    between atoms: C7_7  and  N3_27 
REMARK       I    between atoms: C8_8  and  N1_10 
REMARK    4  A    between atoms: N1_10  and  C9_11 
REMARK    5  A    between atoms: C14_16  and  C16_20 
ROOT
ATOM      1  C8  <0> d          49.785  47.627  40.053  0.00  0.00     0.253 C 
ATOM      2  O1  <0> d          48.644  47.267  39.860  0.00  0.00    -0.271 OA
ATOM      3  N1  <0> d          50.043  48.601  40.948  0.00  0.00    -0.344 N 
ATOM      4  H9  <0> d          50.956  48.889  41.101  0.00  0.00     0.163 HD
ENDROOT
BRANCH   3   5
ATOM      5  C9  <0> d          48.944  49.226  41.689  0.00  0.00     0.200 C 
ATOM      6  C15 <0> d          49.107  50.706  41.895  0.00  0.00     0.250 C 
ATOM      7  N2  <0> d          48.876  50.613  43.192  0.00  0.00    -0.302 N 
ATOM      8  O2  <0> d          49.357  51.633  41.153  0.00  0.00    -0.271 OA
ATOM      9  C10 <0> d          49.091  49.144  43.193  0.00  0.00     0.125 C 
ATOM     10  C14 <0> d          48.479  51.380  44.310  0.00  0.00     0.133 C 
ATOM     11  C11 <0> d          47.907  48.540  43.966  0.00  0.00     0.034 C 
ATOM     12  C12 <0> d          47.870  49.180  45.356  0.00  0.00     0.056 C 
ATOM     13  C13 <0> d          47.981  50.672  45.338  0.00  0.00     0.045 C 
ATOM     14 Cl1  <0> d          47.438  51.543  46.738  0.00  0.00    -0.086 Cl
BRANCH  10  15
ATOM     15  C16 <0> d          48.604  52.846  44.347  0.00  0.00     0.228 C 
ATOM     16  O3  <0> d          47.623  53.544  44.186  0.00  0.00    -0.643 OA
ATOM     17  O4  <0> d          49.807  53.414  44.562  0.00  0.00    -0.643 OA
ENDBRANCH  10  15
ENDBRANCH   3   5
BRANCH   1  18
ATOM     18  C7  <0> d          50.916  46.985  39.290  0.00  0.00     0.307 C 
BRANCH  18  19
ATOM     19  C4  <0> d          50.859  47.418  37.848  0.00  0.00    -0.019 A 
ATOM     20  C3  <0> d          51.548  48.544  37.437  0.00  0.00     0.010 A 
ATOM     21  C2  <0> d          51.495  48.943  36.114  0.00  0.00     0.001 A 
ATOM     22  C1  <0> d          50.757  48.214  35.202  0.00  0.00     0.000 A 
ATOM     23  C6  <0> d          50.068  47.087  35.613  0.00  0.00     0.001 A 
ATOM     24  C5  <0> d          50.124  46.686  36.935  0.00  0.00     0.010 A 
ENDBRANCH  18  19
BRANCH  18  25
ATOM     25  N3  <0> d          50.812  45.518  39.354  0.00  0.00    -0.062 N 
ATOM     26  H14 <0> d          50.560  45.226  40.297  0.00  0.00     0.275 HD
ATOM     27  H15 <0> d          50.107  45.187  38.697  0.00  0.00     0.275 HD
ATOM     28  H16 <0> d          51.719  45.104  39.108  0.00  0.00     0.275 HD
ENDBRANCH  18  25
ENDBRANCH   1  18
TORSDOF 5
ENDMDL
