MODEL 1
REMARK VINA RESULT:      -9.0      0.000      0.000
REMARK  5 active torsions:
REMARK  status: ('A' for Active; 'I' for Inactive)
REMARK    1  A    between atoms: C4_4  and  C7_7 
REMARK    2  A    between atoms: C7_7  and  C8_8 
REMARK    3  A    between atoms: C7_7  and  N3_27 
REMARK       I    between atoms: C8_8  and  N1_10 
REMARK    4  A    between atoms: N1_10  and  C9_11 
REMARK    5  A    between atoms: C14_16  and  C16_20 
ROOT
ATOM      1  C8  <0> d          51.396  49.983  40.968  0.00  0.00     0.253 C 
ATOM      2  O1  <0> d          50.825  50.998  41.307  0.00  0.00    -0.271 OA
ATOM      3  N1  <0> d          51.463  48.933  41.812  0.00  0.00    -0.344 N 
ATOM      4  H9  <0> d          51.921  48.123  41.541  0.00  0.00     0.163 HD
ENDROOT
BRANCH   3   5
ATOM      5  C9  <0> d          50.848  49.020  43.139  0.00  0.00     0.200 C 
ATOM      6  C15 <0> d          51.138  47.841  44.027  0.00  0.00     0.250 C 
ATOM      7  N2  <0> d          49.862  47.668  44.317  0.00  0.00    -0.302 N 
ATOM      8  O2  <0> d          52.157  47.267  44.352  0.00  0.00    -0.271 OA
ATOM      9  C10 <0> d          49.419  48.523  43.187  0.00  0.00     0.125 C 
ATOM     10  C14 <0> d          49.009  47.073  45.275  0.00  0.00     0.133 C 
ATOM     11  C11 <0> d          48.377  49.493  43.770  0.00  0.00     0.034 C 
ATOM     12  C12 <0> d          47.265  48.663  44.414  0.00  0.00     0.056 C 
ATOM     13  C13 <0> d          47.764  47.579  45.317  0.00  0.00     0.045 C 
ATOM     14 Cl1  <0> d          46.662  46.926  46.490  0.00  0.00    -0.086 Cl
BRANCH  10  15
ATOM     15  C16 <0> d          49.450  45.983  46.156  0.00  0.00     0.228 C 
ATOM     16  O3  <0> d          49.965  46.237  47.228  0.00  0.00    -0.643 OA
ATOM     17  O4  <0> d          49.280  44.700  45.778  0.00  0.00    -0.643 OA
ENDBRANCH  10  15
ENDBRANCH   3   5
BRANCH   1  18
ATOM     18  C7  <0> d          52.029  49.894  39.604  0.00  0.00     0.307 C 
BRANCH  18  19
ATOM     19  C4  <0> d          52.447  51.270  39.154  0.00  0.00    -0.019 A 
ATOM     20  C3  <0> d          51.679  51.960  38.233  0.00  0.00     0.010 A 
ATOM     21  C2  <0> d          52.061  53.223  37.821  0.00  0.00     0.001 A 
ATOM     22  C1  <0> d          53.210  53.797  38.330  0.00  0.00     0.000 A 
ATOM     23  C6  <0> d          53.977  53.109  39.252  0.00  0.00     0.001 A 
ATOM     24  C5  <0> d          53.593  51.848  39.667  0.00  0.00     0.010 A 
ENDBRANCH  18  19
BRANCH  18  25
ATOM     25  N3  <0> d          51.076  49.340  38.627  0.00  0.00    -0.062 N 
ATOM     26  H14 <0> d          51.273  48.353  38.469  0.00  0.00     0.275 HD
ATOM     27  H15 <0> d          50.123  49.443  38.973  0.00  0.00     0.275 HD
ATOM     28  H16 <0> d          51.168  49.847  37.740  0.00  0.00     0.275 HD
ENDBRANCH  18  25
ENDBRANCH   1  18
TORSDOF 5
ENDMDL
MODEL 2
REMARK VINA RESULT:      -8.7      3.280      3.724
REMARK  5 active torsions:
REMARK  status: ('A' for Active; 'I' for Inactive)
REMARK    1  A    between atoms: C4_4  and  C7_7 
REMARK    2  A    between atoms: C7_7  and  C8_8 
REMARK    3  A    between atoms: C7_7  and  N3_27 
REMARK       I    between atoms: C8_8  and  N1_10 
REMARK    4  A    between atoms: N1_10  and  C9_11 
REMARK    5  A    between atoms: C14_16  and  C16_20 
ROOT
ATOM      1  C8  <0> d          51.572  46.654  40.523  0.00  0.00     0.253 C 
ATOM      2  O1  <0> d          52.562  47.246  40.895  0.00  0.00    -0.271 OA
ATOM      3  N1  <0> d          50.413  46.784  41.200  0.00  0.00    -0.344 N 
ATOM      4  H9  <0> d          49.622  46.309  40.902  0.00  0.00     0.163 HD
ENDROOT
BRANCH   3   5
ATOM      5  C9  <0> d          50.352  47.639  42.389  0.00  0.00     0.200 C 
ATOM      6  C15 <0> d          50.311  46.882  43.688  0.00  0.00     0.250 C 
ATOM      7  N2  <0> d          49.263  47.557  44.119  0.00  0.00    -0.302 N 
ATOM      8  O2  <0> d          50.985  45.988  44.159  0.00  0.00    -0.271 OA
ATOM      9  C10 <0> d          48.951  48.073  42.763  0.00  0.00     0.125 C 
ATOM     10  C14 <0> d          48.571  47.902  45.303  0.00  0.00     0.133 C 
ATOM     11  C11 <0> d          48.723  49.585  42.924  0.00  0.00     0.034 C 
ATOM     12  C12 <0> d          47.610  49.790  43.953  0.00  0.00     0.056 C 
ATOM     13  C13 <0> d          47.791  48.993  45.207  0.00  0.00     0.045 C 
ATOM     14 Cl1  <0> d          46.932  49.505  46.627  0.00  0.00    -0.086 Cl
BRANCH  10  15
ATOM     15  C16 <0> d          48.694  47.126  46.545  0.00  0.00     0.228 C 
ATOM     16  O3  <0> d          49.534  47.427  47.371  0.00  0.00    -0.643 OA
ATOM     17  O4  <0> d          47.873  46.080  46.770  0.00  0.00    -0.643 OA
ENDBRANCH  10  15
ENDBRANCH   3   5
BRANCH   1  18
ATOM     18  C7  <0> d          51.635  45.774  39.301  0.00  0.00     0.307 C 
BRANCH  18  19
ATOM     19  C4  <0> d          51.077  46.519  38.117  0.00  0.00    -0.019 A 
ATOM     20  C3  <0> d          49.761  46.327  37.736  0.00  0.00     0.010 A 
ATOM     21  C2  <0> d          49.248  47.011  36.650  0.00  0.00     0.001 A 
ATOM     22  C1  <0> d          50.050  47.888  35.944  0.00  0.00     0.000 A 
ATOM     23  C6  <0> d          51.365  48.081  36.325  0.00  0.00     0.001 A 
ATOM     24  C5  <0> d          51.877  47.400  37.414  0.00  0.00     0.010 A 
ENDBRANCH  18  19
BRANCH  18  25
ATOM     25  N3  <0> d          50.849  44.546  39.509  0.00  0.00    -0.062 N 
ATOM     26  H14 <0> d          49.948  44.774  39.926  0.00  0.00     0.275 HD
ATOM     27  H15 <0> d          50.700  44.072  38.619  0.00  0.00     0.275 HD
ATOM     28  H16 <0> d          51.361  43.919  40.140  0.00  0.00     0.275 HD
ENDBRANCH  18  25
ENDBRANCH   1  18
TORSDOF 5
ENDMDL
MODEL 3
REMARK VINA RESULT:      -8.4      2.432      3.473
REMARK  5 active torsions:
REMARK  status: ('A' for Active; 'I' for Inactive)
REMARK    1  A    between atoms: C4_4  and  C7_7 
REMARK    2  A    between atoms: C7_7  and  C8_8 
REMARK    3  A    between atoms: C7_7  and  N3_27 
REMARK       I    between atoms: C8_8  and  N1_10 
REMARK    4  A    between atoms: N1_10  and  C9_11 
REMARK    5  A    between atoms: C14_16  and  C16_20 
ROOT
ATOM      1  C8  <0> d          50.111  50.810  38.484  0.00  0.00     0.253 C 
ATOM      2  O1  <0> d          49.929  49.654  38.167  0.00  0.00    -0.271 OA
ATOM      3  N1  <0> d          49.791  51.226  39.727  0.00  0.00    -0.344 N 
ATOM      4  H9  <0> d          49.936  52.151  39.979  0.00  0.00     0.163 HD
ENDROOT
BRANCH   3   5
ATOM      5  C9  <0> d          49.222  50.281  40.691  0.00  0.00     0.200 C 
ATOM      6  C15 <0> d          49.034  50.852  42.071  0.00  0.00     0.250 C 
ATOM      7  N2  <0> d          49.656  49.839  42.642  0.00  0.00    -0.302 N 
ATOM      8  O2  <0> d          48.509  51.862  42.495  0.00  0.00    -0.271 OA
ATOM      9  C10 <0> d          50.249  49.390  41.357  0.00  0.00     0.125 C 
ATOM     10  C14 <0> d          49.796  49.175  43.882  0.00  0.00     0.133 C 
ATOM     11  C11 <0> d          49.994  47.875  41.277  0.00  0.00     0.034 C 
ATOM     12  C12 <0> d          50.604  47.225  42.521  0.00  0.00     0.056 C 
ATOM     13  C13 <0> d          50.240  47.909  43.801  0.00  0.00     0.045 C 
ATOM     14 Cl1  <0> d          50.408  47.011  45.278  0.00  0.00    -0.086 Cl
BRANCH  10  15
ATOM     15  C16 <0> d          49.483  49.823  45.165  0.00  0.00     0.228 C 
ATOM     16  O3  <0> d          48.408  49.627  45.699  0.00  0.00    -0.643 OA
ATOM     17  O4  <0> d          50.389  50.632  45.750  0.00  0.00    -0.643 OA
ENDBRANCH  10  15
ENDBRANCH   3   5
BRANCH   1  18
ATOM     18  C7  <0> d          50.695  51.781  37.492  0.00  0.00     0.307 C 
BRANCH  18  19
ATOM     19  C4  <0> d          51.940  52.401  38.070  0.00  0.00    -0.019 A 
ATOM     20  C3  <0> d          52.725  51.683  38.954  0.00  0.00     0.010 A 
ATOM     21  C2  <0> d          53.868  52.251  39.485  0.00  0.00     0.001 A 
ATOM     22  C1  <0> d          54.228  53.537  39.131  0.00  0.00     0.000 A 
ATOM     23  C6  <0> d          53.445  54.255  38.247  0.00  0.00     0.001 A 
ATOM     24  C5  <0> d          52.304  53.685  37.712  0.00  0.00     0.010 A 
ENDBRANCH  18  19
BRANCH  18  25
ATOM     25  N3  <0> d          49.728  52.847  37.182  0.00  0.00    -0.062 N 
ATOM     26  H14 <0> d          50.206  53.745  37.120  0.00  0.00     0.275 HD
ATOM     27  H15 <0> d          49.262  52.650  36.298  0.00  0.00     0.275 HD
ATOM     28  H16 <0> d          49.025  52.893  37.929  0.00  0.00     0.275 HD
ENDBRANCH  18  25
ENDBRANCH   1  18
TORSDOF 5
ENDMDL
MODEL 4
REMARK VINA RESULT:      -8.3      3.798      5.371
REMARK  5 active torsions:
REMARK  status: ('A' for Active; 'I' for Inactive)
REMARK    1  A    between atoms: C4_4  and  C7_7 
REMARK    2  A    between atoms: C7_7  and  C8_8 
REMARK    3  A    between atoms: C7_7  and  N3_27 
REMARK       I    between atoms: C8_8  and  N1_10 
REMARK    4  A    between atoms: N1_10  and  C9_11 
REMARK    5  A    between atoms: C14_16  and  C16_20 
ROOT
ATOM      1  C8  <0> d          50.978  48.338  44.572  0.00  0.00     0.253 C 
ATOM      2  O1  <0> d          51.209  49.486  44.885  0.00  0.00    -0.271 OA
ATOM      3  N1  <0> d          49.709  47.883  44.570  0.00  0.00    -0.344 N 
ATOM      4  H9  <0> d          49.525  46.964  44.320  0.00  0.00     0.163 HD
ENDROOT
BRANCH   3   5
ATOM      5  C9  <0> d          48.610  48.775  44.948  0.00  0.00     0.200 C 
ATOM      6  C15 <0> d          47.305  48.069  45.198  0.00  0.00     0.250 C 
ATOM      7  N2  <0> d          46.641  48.884  44.400  0.00  0.00    -0.302 N 
ATOM      8  O2  <0> d          46.986  47.114  45.875  0.00  0.00    -0.271 OA
ATOM      9  C10 <0> d          47.886  49.392  43.770  0.00  0.00     0.125 C 
ATOM     10  C14 <0> d          45.336  49.349  44.120  0.00  0.00     0.133 C 
ATOM     11  C11 <0> d          47.766  50.925  43.768  0.00  0.00     0.034 C 
ATOM     12  C12 <0> d          46.480  51.299  43.027  0.00  0.00     0.056 C 
ATOM     13  C13 <0> d          45.279  50.525  43.471  0.00  0.00     0.045 C 
ATOM     14 Cl1  <0> d          43.712  51.184  43.120  0.00  0.00    -0.086 Cl
BRANCH  10  15
ATOM     15  C16 <0> d          44.131  48.602  44.508  0.00  0.00     0.228 C 
ATOM     16  O3  <0> d          43.676  48.719  45.630  0.00  0.00    -0.643 OA
ATOM     17  O4  <0> d          43.527  47.788  43.619  0.00  0.00    -0.643 OA
ENDBRANCH  10  15
ENDBRANCH   3   5
BRANCH   1  18
ATOM     18  C7  <0> d          52.108  47.421  44.183  0.00  0.00     0.307 C 
BRANCH  18  19
ATOM     19  C4  <0> d          51.951  47.015  42.741  0.00  0.00    -0.019 A 
ATOM     20  C3  <0> d          52.169  47.938  41.735  0.00  0.00     0.010 A 
ATOM     21  C2  <0> d          52.026  47.565  40.411  0.00  0.00     0.001 A 
ATOM     22  C1  <0> d          51.666  46.270  40.093  0.00  0.00     0.000 A 
ATOM     23  C6  <0> d          51.450  45.346  41.099  0.00  0.00     0.001 A 
ATOM     24  C5  <0> d          51.597  45.717  42.422  0.00  0.00     0.010 A 
ENDBRANCH  18  19
BRANCH  18  25
ATOM     25  N3  <0> d          52.105  46.212  45.025  0.00  0.00    -0.062 N 
ATOM     26  H14 <0> d          51.817  45.405  44.475  0.00  0.00     0.275 HD
ATOM     27  H15 <0> d          53.035  46.049  45.405  0.00  0.00     0.275 HD
ATOM     28  H16 <0> d          51.444  46.342  45.799  0.00  0.00     0.275 HD
ENDBRANCH  18  25
ENDBRANCH   1  18
TORSDOF 5
ENDMDL
MODEL 5
REMARK VINA RESULT:      -8.3      3.358      8.181
REMARK  5 active torsions:
REMARK  status: ('A' for Active; 'I' for Inactive)
REMARK    1  A    between atoms: C4_4  and  C7_7 
REMARK    2  A    between atoms: C7_7  and  C8_8 
REMARK    3  A    between atoms: C7_7  and  N3_27 
REMARK       I    between atoms: C8_8  and  N1_10 
REMARK    4  A    between atoms: N1_10  and  C9_11 
REMARK    5  A    between atoms: C14_16  and  C16_20 
ROOT
ATOM      1  C8  <0> d          50.662  46.895  45.025  0.00  0.00     0.253 C 
ATOM      2  O1  <0> d          51.701  46.270  45.061  0.00  0.00    -0.271 OA
ATOM      3  N1  <0> d          50.320  47.570  43.909  0.00  0.00    -0.344 N 
ATOM      4  H9  <0> d          49.489  48.070  43.881  0.00  0.00     0.163 HD
ENDROOT
BRANCH   3   5
ATOM      5  C9  <0> d          51.205  47.551  42.741  0.00  0.00     0.200 C 
ATOM      6  C15 <0> d          51.074  48.758  41.853  0.00  0.00     0.250 C 
ATOM      7  N2  <0> d          50.931  48.022  40.768  0.00  0.00    -0.302 N 
ATOM      8  O2  <0> d          51.093  49.955  42.058  0.00  0.00    -0.271 OA
ATOM      9  C10 <0> d          50.641  46.796  41.555  0.00  0.00     0.125 C 
ATOM     10  C14 <0> d          51.044  48.079  39.360  0.00  0.00     0.133 C 
ATOM     11  C11 <0> d          51.530  45.690  40.963  0.00  0.00     0.034 C 
ATOM     12  C12 <0> d          51.214  45.576  39.471  0.00  0.00     0.056 C 
ATOM     13  C13 <0> d          51.197  46.889  38.754  0.00  0.00     0.045 C 
ATOM     14 Cl1  <0> d          51.378  46.874  37.027  0.00  0.00    -0.086 Cl
BRANCH  10  15
ATOM     15  C16 <0> d          50.997  49.346  38.615  0.00  0.00     0.228 C 
ATOM     16  O3  <0> d          52.015  49.987  38.440  0.00  0.00    -0.643 OA
ATOM     17  O4  <0> d          49.825  49.795  38.123  0.00  0.00    -0.643 OA
ENDBRANCH  10  15
ENDBRANCH   3   5
BRANCH   1  18
ATOM     18  C7  <0> d          49.753  46.915  46.226  0.00  0.00     0.307 C 
BRANCH  18  19
ATOM     19  C4  <0> d          48.623  45.941  46.016  0.00  0.00    -0.019 A 
ATOM     20  C3  <0> d          47.315  46.348  46.200  0.00  0.00     0.010 A 
ATOM     21  C2  <0> d          46.277  45.455  46.007  0.00  0.00     0.001 A 
ATOM     22  C1  <0> d          46.548  44.154  45.629  0.00  0.00     0.000 A 
ATOM     23  C6  <0> d          47.856  43.746  45.443  0.00  0.00     0.001 A 
ATOM     24  C5  <0> d          48.893  44.641  45.632  0.00  0.00     0.010 A 
ENDBRANCH  18  19
BRANCH  18  25
ATOM     25  N3  <0> d          49.193  48.262  46.427  0.00  0.00    -0.062 N 
ATOM     26  H14 <0> d          49.924  48.963  46.323  0.00  0.00     0.275 HD
ATOM     27  H15 <0> d          48.455  48.439  45.747  0.00  0.00     0.275 HD
ATOM     28  H16 <0> d          48.800  48.326  47.373  0.00  0.00     0.275 HD
ENDBRANCH  18  25
ENDBRANCH   1  18
TORSDOF 5
ENDMDL
MODEL 6
REMARK VINA RESULT:      -8.3      1.863      2.228
REMARK  5 active torsions:
REMARK  status: ('A' for Active; 'I' for Inactive)
REMARK    1  A    between atoms: C4_4  and  C7_7 
REMARK    2  A    between atoms: C7_7  and  C8_8 
REMARK    3  A    between atoms: C7_7  and  N3_27 
REMARK       I    between atoms: C8_8  and  N1_10 
REMARK    4  A    between atoms: N1_10  and  C9_11 
REMARK    5  A    between atoms: C14_16  and  C16_20 
ROOT
ATOM      1  C8  <0> d          51.631  48.014  40.812  0.00  0.00     0.253 C 
ATOM      2  O1  <0> d          52.584  47.599  41.436  0.00  0.00    -0.271 OA
ATOM      3  N1  <0> d          50.464  48.256  41.443  0.00  0.00    -0.344 N 
ATOM      4  H9  <0> d          49.703  48.587  40.943  0.00  0.00     0.163 HD
ENDROOT
BRANCH   3   5
ATOM      5  C9  <0> d          50.348  48.013  42.884  0.00  0.00     0.200 C 
ATOM      6  C15 <0> d          49.250  47.055  43.257  0.00  0.00     0.250 C 
ATOM      7  N2  <0> d          48.751  47.881  44.157  0.00  0.00    -0.302 N 
ATOM      8  O2  <0> d          48.941  45.945  42.875  0.00  0.00    -0.271 OA
ATOM      9  C10 <0> d          49.505  49.039  43.613  0.00  0.00     0.125 C 
ATOM     10  C14 <0> d          47.927  47.911  45.306  0.00  0.00     0.133 C 
ATOM     11  C11 <0> d          50.160  49.727  44.822  0.00  0.00     0.034 C 
ATOM     12  C12 <0> d          49.054  50.098  45.813  0.00  0.00     0.056 C 
ATOM     13  C13 <0> d          48.101  48.981  46.101  0.00  0.00     0.045 C 
ATOM     14 Cl1  <0> d          47.151  49.077  47.552  0.00  0.00    -0.086 Cl
BRANCH  10  15
ATOM     15  C16 <0> d          46.953  46.852  45.607  0.00  0.00     0.228 C 
ATOM     16  O3  <0> d          47.269  45.920  46.322  0.00  0.00    -0.643 OA
ATOM     17  O4  <0> d          45.709  46.914  45.092  0.00  0.00    -0.643 OA
ENDBRANCH  10  15
ENDBRANCH   3   5
BRANCH   1  18
ATOM     18  C7  <0> d          51.752  48.262  39.331  0.00  0.00     0.307 C 
BRANCH  18  19
ATOM     19  C4  <0> d          52.001  49.727  39.086  0.00  0.00    -0.019 A 
ATOM     20  C3  <0> d          51.387  50.366  38.025  0.00  0.00     0.010 A 
ATOM     21  C2  <0> d          51.615  51.711  37.800  0.00  0.00     0.001 A 
ATOM     22  C1  <0> d          52.457  52.418  38.638  0.00  0.00     0.000 A 
ATOM     23  C6  <0> d          53.070  51.780  39.700  0.00  0.00     0.001 A 
ATOM     24  C5  <0> d          52.839  50.436  39.927  0.00  0.00     0.010 A 
ENDBRANCH  18  19
BRANCH  18  25
ATOM     25  N3  <0> d          50.514  47.865  38.639  0.00  0.00    -0.062 N 
ATOM     26  H14 <0> d          49.999  47.191  39.203  0.00  0.00     0.275 HD
ATOM     27  H15 <0> d          49.930  48.682  38.471  0.00  0.00     0.275 HD
ATOM     28  H16 <0> d          50.754  47.434  37.739  0.00  0.00     0.275 HD
ENDBRANCH  18  25
ENDBRANCH   1  18
TORSDOF 5
ENDMDL
MODEL 7
REMARK VINA RESULT:      -8.1      2.805      3.642
REMARK  5 active torsions:
REMARK  status: ('A' for Active; 'I' for Inactive)
REMARK    1  A    between atoms: C4_4  and  C7_7 
REMARK    2  A    between atoms: C7_7  and  C8_8 
REMARK    3  A    between atoms: C7_7  and  N3_27 
REMARK       I    between atoms: C8_8  and  N1_10 
REMARK    4  A    between atoms: N1_10  and  C9_11 
REMARK    5  A    between atoms: C14_16  and  C16_20 
ROOT
ATOM      1  C8  <0> d          50.695  47.666  38.812  0.00  0.00     0.253 C 
ATOM      2  O1  <0> d          49.521  47.606  38.513  0.00  0.00    -0.271 OA
ATOM      3  N1  <0> d          51.056  47.777  40.106  0.00  0.00    -0.344 N 
ATOM      4  H9  <0> d          51.995  47.825  40.344  0.00  0.00     0.163 HD
ENDROOT
BRANCH   3   5
ATOM      5  C9  <0> d          50.030  47.827  41.151  0.00  0.00     0.200 C 
ATOM      6  C15 <0> d          50.015  49.113  41.933  0.00  0.00     0.250 C 
ATOM      7  N2  <0> d          50.038  48.481  43.091  0.00  0.00    -0.302 N 
ATOM      8  O2  <0> d          49.991  50.285  41.617  0.00  0.00    -0.271 OA
ATOM      9  C10 <0> d          50.458  47.203  42.463  0.00  0.00     0.125 C 
ATOM     10  C14 <0> d          49.744  48.659  44.462  0.00  0.00     0.133 C 
ATOM     11  C11 <0> d          49.530  46.120  43.039  0.00  0.00     0.034 C 
ATOM     12  C12 <0> d          49.655  46.150  44.563  0.00  0.00     0.056 C 
ATOM     13  C13 <0> d          49.547  47.522  45.152  0.00  0.00     0.045 C 
ATOM     14 Cl1  <0> d          49.147  47.653  46.837  0.00  0.00    -0.086 Cl
BRANCH  10  15
ATOM     15  C16 <0> d          49.662  49.987  45.087  0.00  0.00     0.228 C 
ATOM     16  O3  <0> d          50.658  50.498  45.562  0.00  0.00    -0.643 OA
ATOM     17  O4  <0> d          48.484  50.639  45.131  0.00  0.00    -0.643 OA
ENDBRANCH  10  15
ENDBRANCH   3   5
BRANCH   1  18
ATOM     18  C7  <0> d          51.749  47.614  37.737  0.00  0.00     0.307 C 
BRANCH  18  19
ATOM     19  C4  <0> d          51.574  48.785  36.806  0.00  0.00    -0.019 A 
ATOM     20  C3  <0> d          51.166  48.578  35.501  0.00  0.00     0.010 A 
ATOM     21  C2  <0> d          51.004  49.652  34.646  0.00  0.00     0.001 A 
ATOM     22  C1  <0> d          51.249  50.935  35.096  0.00  0.00     0.000 A 
ATOM     23  C6  <0> d          51.655  51.144  36.401  0.00  0.00     0.001 A 
ATOM     24  C5  <0> d          51.813  50.070  37.257  0.00  0.00     0.010 A 
ENDBRANCH  18  19
BRANCH  18  25
ATOM     25  N3  <0> d          51.637  46.366  36.963  0.00  0.00    -0.062 N 
ATOM     26  H14 <0> d          51.613  45.566  37.593  0.00  0.00     0.275 HD
ATOM     27  H15 <0> d          50.788  46.379  36.401  0.00  0.00     0.275 HD
ATOM     28  H16 <0> d          52.449  46.280  36.342  0.00  0.00     0.275 HD
ENDBRANCH  18  25
ENDBRANCH   1  18
TORSDOF 5
ENDMDL
MODEL 8
REMARK VINA RESULT:      -8.1      3.804      8.076
REMARK  5 active torsions:
REMARK  status: ('A' for Active; 'I' for Inactive)
REMARK    1  A    between atoms: C4_4  and  C7_7 
REMARK    2  A    between atoms: C7_7  and  C8_8 
REMARK    3  A    between atoms: C7_7  and  N3_27 
REMARK       I    between atoms: C8_8  and  N1_10 
REMARK    4  A    between atoms: N1_10  and  C9_11 
REMARK    5  A    between atoms: C14_16  and  C16_20 
ROOT
ATOM      1  C8  <0> d          52.200  47.611  42.787  0.00  0.00     0.253 C 
ATOM      2  O1  <0> d          53.103  46.851  42.511  0.00  0.00    -0.271 OA
ATOM      3  N1  <0> d          51.578  48.302  41.810  0.00  0.00    -0.344 N 
ATOM      4  H9  <0> d          50.856  48.910  42.032  0.00  0.00     0.163 HD
ENDROOT
BRANCH   3   5
ATOM      5  C9  <0> d          51.995  48.135  40.416  0.00  0.00     0.200 C 
ATOM      6  C15 <0> d          51.779  49.354  39.561  0.00  0.00     0.250 C 
ATOM      7  N2  <0> d          51.151  48.665  38.628  0.00  0.00    -0.302 N 
ATOM      8  O2  <0> d          52.071  50.526  39.685  0.00  0.00    -0.271 OA
ATOM      9  C10 <0> d          50.941  47.505  39.530  0.00  0.00     0.125 C 
ATOM     10  C14 <0> d          50.786  48.714  37.263  0.00  0.00     0.133 C 
ATOM     11  C11 <0> d          51.371  46.262  38.733  0.00  0.00     0.034 C 
ATOM     12  C12 <0> d          50.552  46.220  37.442  0.00  0.00     0.056 C 
ATOM     13  C13 <0> d          50.517  47.521  36.704  0.00  0.00     0.045 C 
ATOM     14 Cl1  <0> d          50.094  47.490  35.020  0.00  0.00    -0.086 Cl
BRANCH  10  15
ATOM     15  C16 <0> d          50.706  49.975  36.512  0.00  0.00     0.228 C 
ATOM     16  O3  <0> d          51.704  50.442  35.996  0.00  0.00    -0.643 OA
ATOM     17  O4  <0> d          49.525  50.614  36.392  0.00  0.00    -0.643 OA
ENDBRANCH  10  15
ENDBRANCH   3   5
BRANCH   1  18
ATOM     18  C7  <0> d          51.772  47.782  44.221  0.00  0.00     0.307 C 
BRANCH  18  19
ATOM     19  C4  <0> d          50.659  46.817  44.531  0.00  0.00    -0.019 A 
ATOM     20  C3  <0> d          49.974  46.196  43.502  0.00  0.00     0.010 A 
ATOM     21  C2  <0> d          48.953  45.308  43.786  0.00  0.00     0.001 A 
ATOM     22  C1  <0> d          48.615  45.041  45.099  0.00  0.00     0.000 A 
ATOM     23  C6  <0> d          49.299  45.661  46.128  0.00  0.00     0.001 A 
ATOM     24  C5  <0> d          50.324  46.544  45.844  0.00  0.00     0.010 A 
ENDBRANCH  18  19
BRANCH  18  25
ATOM     25  N3  <0> d          51.295  49.156  44.457  0.00  0.00    -0.062 N 
ATOM     26  H14 <0> d          50.561  49.390  43.791  0.00  0.00     0.275 HD
ATOM     27  H15 <0> d          50.932  49.241  45.405  0.00  0.00     0.275 HD
ATOM     28  H16 <0> d          52.077  49.810  44.337  0.00  0.00     0.275 HD
ENDBRANCH  18  25
ENDBRANCH   1  18
TORSDOF 5
ENDMDL
MODEL 9
REMARK VINA RESULT:      -8.1      3.197      7.838
REMARK  5 active torsions:
REMARK  status: ('A' for Active; 'I' for Inactive)
REMARK    1  A    between atoms: C4_4  and  C7_7 
REMARK    2  A    between atoms: C7_7  and  C8_8 
REMARK    3  A    between atoms: C7_7  and  N3_27 
REMARK       I    between atoms: C8_8  and  N1_10 
REMARK    4  A    between atoms: N1_10  and  C9_11 
REMARK    5  A    between atoms: C14_16  and  C16_20 
ROOT
ATOM      1  C8  <0> d          49.795  46.082  43.694  0.00  0.00     0.253 C 
ATOM      2  O1  <0> d          50.919  45.884  44.104  0.00  0.00    -0.271 OA
ATOM      3  N1  <0> d          49.608  46.613  42.469  0.00  0.00    -0.344 N 
ATOM      4  H9  <0> d          48.709  46.772  42.142  0.00  0.00     0.163 HD
ENDROOT
BRANCH   3   5
ATOM      5  C9  <0> d          50.763  46.954  41.634  0.00  0.00     0.200 C 
ATOM      6  C15 <0> d          51.132  48.412  41.664  0.00  0.00     0.250 C 
ATOM      7  N2  <0> d          51.156  48.496  40.347  0.00  0.00    -0.302 N 
ATOM      8  O2  <0> d          51.332  49.208  42.559  0.00  0.00    -0.271 OA
ATOM      9  C10 <0> d          50.417  47.218  40.184  0.00  0.00     0.125 C 
ATOM     10  C14 <0> d          51.670  49.282  39.291  0.00  0.00     0.133 C 
ATOM     11  C11 <0> d          51.196  46.407  39.136  0.00  0.00     0.034 C 
ATOM     12  C12 <0> d          51.297  47.249  37.863  0.00  0.00     0.056 C 
ATOM     13  C13 <0> d          51.745  48.657  38.103  0.00  0.00     0.045 C 
ATOM     14 Cl1  <0> d          52.399  49.542  36.759  0.00  0.00    -0.086 Cl
BRANCH  10  15
ATOM     15  C16 <0> d          52.089  50.679  39.477  0.00  0.00     0.228 C 
ATOM     16  O3  <0> d          51.284  51.580  39.334  0.00  0.00    -0.643 OA
ATOM     17  O4  <0> d          53.365  50.962  39.807  0.00  0.00    -0.643 OA
ENDBRANCH  10  15
ENDBRANCH   3   5
BRANCH   1  18
ATOM     18  C7  <0> d          48.608  45.733  44.553  0.00  0.00     0.307 C 
BRANCH  18  19
ATOM     19  C4  <0> d          48.319  46.871  45.496  0.00  0.00    -0.019 A 
ATOM     20  C3  <0> d          47.402  47.845  45.144  0.00  0.00     0.010 A 
ATOM     21  C2  <0> d          47.136  48.890  46.010  0.00  0.00     0.001 A 
ATOM     22  C1  <0> d          47.785  48.961  47.227  0.00  0.00     0.000 A 
ATOM     23  C6  <0> d          48.700  47.987  47.580  0.00  0.00     0.001 A 
ATOM     24  C5  <0> d          48.963  46.939  46.717  0.00  0.00     0.010 A 
ENDBRANCH  18  19
BRANCH  18  25
ATOM     25  N3  <0> d          48.879  44.517  45.338  0.00  0.00    -0.062 N 
ATOM     26  H14 <0> d          49.301  43.804  44.745  0.00  0.00     0.275 HD
ATOM     27  H15 <0> d          49.510  44.732  46.109  0.00  0.00     0.275 HD
ATOM     28  H16 <0> d          47.996  44.156  45.718  0.00  0.00     0.275 HD
ENDBRANCH  18  25
ENDBRANCH   1  18
TORSDOF 5
ENDMDL
MODEL 10
REMARK VINA RESULT:      -8.0      3.677      5.049
REMARK  5 active torsions:
REMARK  status: ('A' for Active; 'I' for Inactive)
REMARK    1  A    between atoms: C4_4  and  C7_7 
REMARK    2  A    between atoms: C7_7  and  C8_8 
REMARK    3  A    between atoms: C7_7  and  N3_27 
REMARK       I    between atoms: C8_8  and  N1_10 
REMARK    4  A    between atoms: N1_10  and  C9_11 
REMARK    5  A    between atoms: C14_16  and  C16_20 
ROOT
ATOM      1  C8  <0> d          50.082  47.467  40.648  0.00  0.00     0.253 C 
ATOM      2  O1  <0> d          49.054  46.846  40.813  0.00  0.00    -0.271 OA
ATOM      3  N1  <0> d          50.204  48.715  41.145  0.00  0.00    -0.344 N 
ATOM      4  H9  <0> d          51.026  49.211  41.012  0.00  0.00     0.163 HD
ENDROOT
BRANCH   3   5
ATOM      5  C9  <0> d          49.091  49.321  41.882  0.00  0.00     0.200 C 
ATOM      6  C15 <0> d          49.218  50.808  42.069  0.00  0.00     0.250 C 
ATOM      7  N2  <0> d          48.995  50.726  43.367  0.00  0.00    -0.302 N 
ATOM      8  O2  <0> d          49.441  51.731  41.313  0.00  0.00    -0.271 OA
ATOM      9  C10 <0> d          49.248  49.263  43.387  0.00  0.00     0.125 C 
ATOM     10  C14 <0> d          48.584  51.499  44.477  0.00  0.00     0.133 C 
ATOM     11  C11 <0> d          48.081  48.640  44.173  0.00  0.00     0.034 C 
ATOM     12  C12 <0> d          48.036  49.297  45.554  0.00  0.00     0.056 C 
ATOM     13  C13 <0> d          48.109  50.791  45.517  0.00  0.00     0.045 C 
ATOM     14 Cl1  <0> d          47.550  51.667  46.908  0.00  0.00    -0.086 Cl
BRANCH  10  15
ATOM     15  C16 <0> d          48.672  52.966  44.494  0.00  0.00     0.228 C 
ATOM     16  O3  <0> d          49.716  53.510  44.796  0.00  0.00    -0.643 OA
ATOM     17  O4  <0> d          47.594  53.710  44.172  0.00  0.00    -0.643 OA
ENDBRANCH  10  15
ENDBRANCH   3   5
BRANCH   1  18
ATOM     18  C7  <0> d          51.225  46.844  39.890  0.00  0.00     0.307 C 
BRANCH  18  19
ATOM     19  C4  <0> d          51.034  47.078  38.414  0.00  0.00    -0.019 A 
ATOM     20  C3  <0> d          51.639  48.159  37.801  0.00  0.00     0.010 A 
ATOM     21  C2  <0> d          51.465  48.375  36.446  0.00  0.00     0.001 A 
ATOM     22  C1  <0> d          50.687  47.507  35.704  0.00  0.00     0.000 A 
ATOM     23  C6  <0> d          50.082  46.425  36.316  0.00  0.00     0.001 A 
ATOM     24  C5  <0> d          50.260  46.208  37.670  0.00  0.00     0.010 A 
ENDBRANCH  18  19
BRANCH  18  25
ATOM     25  N3  <0> d          51.282  45.394  40.142  0.00  0.00    -0.062 N 
ATOM     26  H14 <0> d          52.179  45.147  40.557  0.00  0.00     0.275 HD
ATOM     27  H15 <0> d          50.530  45.119  40.772  0.00  0.00     0.275 HD
ATOM     28  H16 <0> d          51.175  44.892  39.253  0.00  0.00     0.275 HD
ENDBRANCH  18  25
ENDBRANCH   1  18
TORSDOF 5
ENDMDL
MODEL 1
REMARK VINA RESULT:      -9.0      0.000      0.000
REMARK  5 active torsions:
REMARK  status: ('A' for Active; 'I' for Inactive)
REMARK    1  A    between atoms: C4_4  and  C7_7 
REMARK    2  A    between atoms: C7_7  and  C8_8 
REMARK    3  A    between atoms: C7_7  and  N3_27 
REMARK       I    between atoms: C8_8  and  N1_10 
REMARK    4  A    between atoms: N1_10  and  C9_11 
REMARK    5  A    between atoms: C14_16  and  C16_20 
ROOT
ATOM      1  C8  <0> d          51.410  49.983  40.970  0.00  0.00     0.253 C 
ATOM      2  O1  <0> d          50.853  51.004  41.315  0.00  0.00    -0.271 OA
ATOM      3  N1  <0> d          51.461  48.929  41.807  0.00  0.00    -0.344 N 
ATOM      4  H9  <0> d          51.906  48.112  41.532  0.00  0.00     0.163 HD
ENDROOT
BRANCH   3   5
ATOM      5  C9  <0> d          50.845  49.015  43.134  0.00  0.00     0.200 C 
ATOM      6  C15 <0> d          51.135  47.836  44.023  0.00  0.00     0.250 C 
ATOM      7  N2  <0> d          49.859  47.665  44.314  0.00  0.00    -0.302 N 
ATOM      8  O2  <0> d          52.154  47.263  44.348  0.00  0.00    -0.271 OA
ATOM      9  C10 <0> d          49.415  48.519  43.184  0.00  0.00     0.125 C 
ATOM     10  C14 <0> d          49.006  47.069  45.270  0.00  0.00     0.133 C 
ATOM     11  C11 <0> d          48.373  49.488  43.765  0.00  0.00     0.034 C 
ATOM     12  C12 <0> d          47.261  48.659  44.410  0.00  0.00     0.056 C 
ATOM     13  C13 <0> d          47.760  47.574  45.313  0.00  0.00     0.045 C 
ATOM     14 Cl1  <0> d          46.659  46.923  46.486  0.00  0.00    -0.086 Cl
BRANCH  10  15
ATOM     15  C16 <0> d          49.446  45.978  46.152  0.00  0.00     0.228 C 
ATOM     16  O3  <0> d          49.961  46.232  47.224  0.00  0.00    -0.643 OA
ATOM     17  O4  <0> d          49.279  44.695  45.773  0.00  0.00    -0.643 OA
ENDBRANCH  10  15
ENDBRANCH   3   5
BRANCH   1  18
ATOM     18  C7  <0> d          52.043  49.895  39.605  0.00  0.00     0.307 C 
BRANCH  18  19
ATOM     19  C4  <0> d          52.443  51.273  39.148  0.00  0.00    -0.019 A 
ATOM     20  C3  <0> d          53.584  51.867  39.655  0.00  0.00     0.010 A 
ATOM     21  C2  <0> d          53.951  53.133  39.236  0.00  0.00     0.001 A 
ATOM     22  C1  <0> d          53.178  53.804  38.308  0.00  0.00     0.000 A 
ATOM     23  C6  <0> d          52.037  53.210  37.799  0.00  0.00     0.001 A 
ATOM     24  C5  <0> d          51.673  51.943  38.216  0.00  0.00     0.010 A 
ENDBRANCH  18  19
BRANCH  18  25
ATOM     25  N3  <0> d          51.096  49.324  38.633  0.00  0.00    -0.062 N 
ATOM     26  H14 <0> d          50.380  50.010  38.399  0.00  0.00     0.275 HD
ATOM     27  H15 <0> d          51.589  49.046  37.786  0.00  0.00     0.275 HD
ATOM     28  H16 <0> d          50.646  48.498  39.045  0.00  0.00     0.275 HD
ENDBRANCH  18  25
ENDBRANCH   1  18
TORSDOF 5
ENDMDL
MODEL 2
REMARK VINA RESULT:      -8.7      3.258      3.696
REMARK  5 active torsions:
REMARK  status: ('A' for Active; 'I' for Inactive)
REMARK    1  A    between atoms: C4_4  and  C7_7 
REMARK    2  A    between atoms: C7_7  and  C8_8 
REMARK    3  A    between atoms: C7_7  and  N3_27 
REMARK       I    between atoms: C8_8  and  N1_10 
REMARK    4  A    between atoms: N1_10  and  C9_11 
REMARK    5  A    between atoms: C14_16  and  C16_20 
ROOT
ATOM      1  C8  <0> d          51.569  46.675  40.496  0.00  0.00     0.253 C 
ATOM      2  O1  <0> d          52.552  47.276  40.875  0.00  0.00    -0.271 OA
ATOM      3  N1  <0> d          50.406  46.797  41.167  0.00  0.00    -0.344 N 
ATOM      4  H9  <0> d          49.619  46.317  40.864  0.00  0.00     0.163 HD
ENDROOT
BRANCH   3   5
ATOM      5  C9  <0> d          50.330  47.654  42.353  0.00  0.00     0.200 C 
ATOM      6  C15 <0> d          50.317  46.899  43.655  0.00  0.00     0.250 C 
ATOM      7  N2  <0> d          49.255  47.551  44.092  0.00  0.00    -0.302 N 
ATOM      8  O2  <0> d          51.015  46.025  44.123  0.00  0.00    -0.271 OA
ATOM      9  C10 <0> d          48.921  48.054  42.736  0.00  0.00     0.125 C 
ATOM     10  C14 <0> d          48.562  47.881  45.278  0.00  0.00     0.133 C 
ATOM     11  C11 <0> d          48.655  49.560  42.894  0.00  0.00     0.034 C 
ATOM     12  C12 <0> d          47.545  49.740  43.931  0.00  0.00     0.056 C 
ATOM     13  C13 <0> d          47.754  48.951  45.185  0.00  0.00     0.045 C 
ATOM     14 Cl1  <0> d          46.893  49.446  46.609  0.00  0.00    -0.086 Cl
BRANCH  10  15
ATOM     15  C16 <0> d          48.712  47.111  46.522  0.00  0.00     0.228 C 
ATOM     16  O3  <0> d          49.550  47.434  47.340  0.00  0.00    -0.643 OA
ATOM     17  O4  <0> d          47.919  46.045  46.755  0.00  0.00    -0.643 OA
ENDBRANCH  10  15
ENDBRANCH   3   5
BRANCH   1  18
ATOM     18  C7  <0> d          51.647  45.795  39.276  0.00  0.00     0.307 C 
BRANCH  18  19
ATOM     19  C4  <0> d          51.111  46.543  38.083  0.00  0.00    -0.019 A 
ATOM     20  C3  <0> d          51.925  47.422  37.394  0.00  0.00     0.010 A 
ATOM     21  C2  <0> d          51.432  48.109  36.300  0.00  0.00     0.001 A 
ATOM     22  C1  <0> d          50.126  47.915  35.893  0.00  0.00     0.000 A 
ATOM     23  C6  <0> d          49.311  47.034  36.581  0.00  0.00     0.001 A 
ATOM     24  C5  <0> d          49.805  46.344  37.673  0.00  0.00     0.010 A 
ENDBRANCH  18  19
BRANCH  18  25
ATOM     25  N3  <0> d          50.853  44.571  39.471  0.00  0.00    -0.062 N 
ATOM     26  H14 <0> d          50.144  44.495  38.743  0.00  0.00     0.275 HD
ATOM     27  H15 <0> d          51.459  43.753  39.441  0.00  0.00     0.275 HD
ATOM     28  H16 <0> d          50.390  44.611  40.386  0.00  0.00     0.275 HD
ENDBRANCH  18  25
ENDBRANCH   1  18
TORSDOF 5
ENDMDL
MODEL 3
REMARK VINA RESULT:      -8.5      2.580      3.281
REMARK  5 active torsions:
REMARK  status: ('A' for Active; 'I' for Inactive)
REMARK    1  A    between atoms: C4_4  and  C7_7 
REMARK    2  A    between atoms: C7_7  and  C8_8 
REMARK    3  A    between atoms: C7_7  and  N3_27 
REMARK       I    between atoms: C8_8  and  N1_10 
REMARK    4  A    between atoms: N1_10  and  C9_11 
REMARK    5  A    between atoms: C14_16  and  C16_20 
ROOT
ATOM      1  C8  <0> d          51.481  46.652  40.177  0.00  0.00     0.253 C 
ATOM      2  O1  <0> d          52.537  46.947  40.696  0.00  0.00    -0.271 OA
ATOM      3  N1  <0> d          50.385  46.467  40.939  0.00  0.00    -0.344 N 
ATOM      4  H9  <0> d          49.541  46.231  40.524  0.00  0.00     0.163 HD
ENDROOT
BRANCH   3   5
ATOM      5  C9  <0> d          50.469  46.621  42.393  0.00  0.00     0.200 C 
ATOM      6  C15 <0> d          49.281  46.073  43.138  0.00  0.00     0.250 C 
ATOM      7  N2  <0> d          49.121  47.189  43.824  0.00  0.00    -0.302 N 
ATOM      8  O2  <0> d          48.694  45.012  43.114  0.00  0.00    -0.271 OA
ATOM      9  C10 <0> d          49.988  47.963  42.901  0.00  0.00     0.125 C 
ATOM     10  C14 <0> d          48.528  47.696  45.004  0.00  0.00     0.133 C 
ATOM     11  C11 <0> d          50.965  48.749  43.791  0.00  0.00     0.034 C 
ATOM     12  C12 <0> d          50.142  49.604  44.758  0.00  0.00     0.056 C 
ATOM     13  C13 <0> d          49.047  48.854  45.448  0.00  0.00     0.045 C 
ATOM     14 Cl1  <0> d          48.399  49.525  46.911  0.00  0.00    -0.086 Cl
BRANCH  10  15
ATOM     15  C16 <0> d          47.427  47.007  45.692  0.00  0.00     0.228 C 
ATOM     16  O3  <0> d          46.291  47.102  45.269  0.00  0.00    -0.643 OA
ATOM     17  O4  <0> d          47.676  46.270  46.794  0.00  0.00    -0.643 OA
ENDBRANCH  10  15
ENDBRANCH   3   5
BRANCH   1  18
ATOM     18  C7  <0> d          51.396  46.495  38.681  0.00  0.00     0.307 C 
BRANCH  18  19
ATOM     19  C4  <0> d          51.596  47.835  38.023  0.00  0.00    -0.019 A 
ATOM     20  C3  <0> d          51.146  48.985  38.644  0.00  0.00     0.010 A 
ATOM     21  C2  <0> d          51.329  50.216  38.040  0.00  0.00     0.001 A 
ATOM     22  C1  <0> d          51.966  50.296  36.817  0.00  0.00     0.000 A 
ATOM     23  C6  <0> d          52.419  49.147  36.196  0.00  0.00     0.001 A 
ATOM     24  C5  <0> d          52.239  47.917  36.802  0.00  0.00     0.010 A 
ENDBRANCH  18  19
BRANCH  18  25
ATOM     25  N3  <0> d          50.079  45.964  38.292  0.00  0.00    -0.062 N 
ATOM     26  H14 <0> d          49.373  46.249  38.970  0.00  0.00     0.275 HD
ATOM     27  H15 <0> d          49.821  46.309  37.369  0.00  0.00     0.275 HD
ATOM     28  H16 <0> d          50.122  44.938  38.267  0.00  0.00     0.275 HD
ENDBRANCH  18  25
ENDBRANCH   1  18
TORSDOF 5
ENDMDL
MODEL 4
REMARK VINA RESULT:      -8.3      2.235      2.712
REMARK  5 active torsions:
REMARK  status: ('A' for Active; 'I' for Inactive)
REMARK    1  A    between atoms: C4_4  and  C7_7 
REMARK    2  A    between atoms: C7_7  and  C8_8 
REMARK    3  A    between atoms: C7_7  and  N3_27 
REMARK       I    between atoms: C8_8  and  N1_10 
REMARK    4  A    between atoms: N1_10  and  C9_11 
REMARK    5  A    between atoms: C14_16  and  C16_20 
ROOT
ATOM      1  C8  <0> d          50.767  49.581  39.041  0.00  0.00     0.253 C 
ATOM      2  O1  <0> d          49.601  49.791  38.783  0.00  0.00    -0.271 OA
ATOM      3  N1  <0> d          51.110  49.081  40.244  0.00  0.00    -0.344 N 
ATOM      4  H9  <0> d          52.043  48.912  40.451  0.00  0.00     0.163 HD
ENDROOT
BRANCH   3   5
ATOM      5  C9  <0> d          50.076  48.793  41.241  0.00  0.00     0.200 C 
ATOM      6  C15 <0> d          49.901  49.873  42.274  0.00  0.00     0.250 C 
ATOM      7  N2  <0> d          49.985  49.015  43.273  0.00  0.00    -0.302 N 
ATOM      8  O2  <0> d          49.745  51.074  42.211  0.00  0.00    -0.271 OA
ATOM      9  C10 <0> d          50.558  47.955  42.407  0.00  0.00     0.125 C 
ATOM     10  C14 <0> d          49.659  48.862  44.641  0.00  0.00     0.133 C 
ATOM     11  C11 <0> d          49.758  46.677  42.709  0.00  0.00     0.034 C 
ATOM     12  C12 <0> d          49.863  46.397  44.210  0.00  0.00     0.056 C 
ATOM     13  C13 <0> d          49.589  47.590  45.069  0.00  0.00     0.045 C 
ATOM     14 Cl1  <0> d          49.158  47.315  46.729  0.00  0.00    -0.086 Cl
BRANCH  10  15
ATOM     15  C16 <0> d          49.417  50.010  45.528  0.00  0.00     0.228 C 
ATOM     16  O3  <0> d          50.350  50.679  45.925  0.00  0.00    -0.643 OA
ATOM     17  O4  <0> d          48.159  50.321  45.900  0.00  0.00    -0.643 OA
ENDBRANCH  10  15
ENDBRANCH   3   5
BRANCH   1  18
ATOM     18  C7  <0> d          51.830  49.877  38.015  0.00  0.00     0.307 C 
BRANCH  18  19
ATOM     19  C4  <0> d          52.350  51.276  38.222  0.00  0.00    -0.019 A 
ATOM     20  C3  <0> d          53.340  51.515  39.157  0.00  0.00     0.010 A 
ATOM     21  C2  <0> d          53.816  52.800  39.347  0.00  0.00     0.001 A 
ATOM     22  C1  <0> d          53.305  53.843  38.600  0.00  0.00     0.000 A 
ATOM     23  C6  <0> d          52.316  53.604  37.663  0.00  0.00     0.001 A 
ATOM     24  C5  <0> d          51.842  52.319  37.471  0.00  0.00     0.010 A 
ENDBRANCH  18  19
BRANCH  18  25
ATOM     25  N3  <0> d          51.279  49.767  36.654  0.00  0.00    -0.062 N 
ATOM     26  H14 <0> d          51.571  50.566  36.093  0.00  0.00     0.275 HD
ATOM     27  H15 <0> d          51.604  48.907  36.214  0.00  0.00     0.275 HD
ATOM     28  H16 <0> d          50.254  49.750  36.706  0.00  0.00     0.275 HD
ENDBRANCH  18  25
ENDBRANCH   1  18
TORSDOF 5
ENDMDL
MODEL 5
REMARK VINA RESULT:      -8.3      3.349      8.216
REMARK  5 active torsions:
REMARK  status: ('A' for Active; 'I' for Inactive)
REMARK    1  A    between atoms: C4_4  and  C7_7 
REMARK    2  A    between atoms: C7_7  and  C8_8 
REMARK    3  A    between atoms: C7_7  and  N3_27 
REMARK       I    between atoms: C8_8  and  N1_10 
REMARK    4  A    between atoms: N1_10  and  C9_11 
REMARK    5  A    between atoms: C14_16  and  C16_20 
ROOT
ATOM      1  C8  <0> d          50.606  46.968  45.068  0.00  0.00     0.253 C 
ATOM      2  O1  <0> d          51.663  46.376  45.130  0.00  0.00    -0.271 OA
ATOM      3  N1  <0> d          50.263  47.614  43.936  0.00  0.00    -0.344 N 
ATOM      4  H9  <0> d          49.418  48.088  43.885  0.00  0.00     0.163 HD
ENDROOT
BRANCH   3   5
ATOM      5  C9  <0> d          51.166  47.602  42.782  0.00  0.00     0.200 C 
ATOM      6  C15 <0> d          51.022  48.796  41.877  0.00  0.00     0.250 C 
ATOM      7  N2  <0> d          50.915  48.042  40.799  0.00  0.00    -0.302 N 
ATOM      8  O2  <0> d          51.008  49.994  42.067  0.00  0.00    -0.271 OA
ATOM      9  C10 <0> d          50.641  46.821  41.596  0.00  0.00     0.125 C 
ATOM     10  C14 <0> d          51.049  48.085  39.393  0.00  0.00     0.133 C 
ATOM     11  C11 <0> d          51.565  45.728  41.033  0.00  0.00     0.034 C 
ATOM     12  C12 <0> d          51.278  45.589  39.537  0.00  0.00     0.056 C 
ATOM     13  C13 <0> d          51.240  46.892  38.803  0.00  0.00     0.045 C 
ATOM     14 Cl1  <0> d          51.450  46.862  37.080  0.00  0.00    -0.086 Cl
BRANCH  10  15
ATOM     15  C16 <0> d          50.983  49.341  38.631  0.00  0.00     0.228 C 
ATOM     16  O3  <0> d          49.910  49.765  38.247  0.00  0.00    -0.643 OA
ATOM     17  O4  <0> d          52.113  50.025  38.358  0.00  0.00    -0.643 OA
ENDBRANCH  10  15
ENDBRANCH   3   5
BRANCH   1  18
ATOM     18  C7  <0> d          49.678  46.980  46.254  0.00  0.00     0.307 C 
BRANCH  18  19
ATOM     19  C4  <0> d          48.575  45.978  46.038  0.00  0.00    -0.019 A 
ATOM     20  C3  <0> d          47.256  46.348  46.229  0.00  0.00     0.010 A 
ATOM     21  C2  <0> d          46.243  45.427  46.032  0.00  0.00     0.001 A 
ATOM     22  C1  <0> d          46.548  44.138  45.639  0.00  0.00     0.000 A 
ATOM     23  C6  <0> d          47.867  43.768  45.445  0.00  0.00     0.001 A 
ATOM     24  C5  <0> d          48.880  44.690  45.640  0.00  0.00     0.010 A 
ENDBRANCH  18  19
BRANCH  18  25
ATOM     25  N3  <0> d          49.084  48.316  46.431  0.00  0.00    -0.062 N 
ATOM     26  H14 <0> d          48.076  48.271  46.292  0.00  0.00     0.275 HD
ATOM     27  H15 <0> d          49.282  48.665  47.368  0.00  0.00     0.275 HD
ATOM     28  H16 <0> d          49.489  48.960  45.742  0.00  0.00     0.275 HD
ENDBRANCH  18  25
ENDBRANCH   1  18
TORSDOF 5
ENDMDL
MODEL 6
REMARK VINA RESULT:      -8.3      3.800      4.931
REMARK  5 active torsions:
REMARK  status: ('A' for Active; 'I' for Inactive)
REMARK    1  A    between atoms: C4_4  and  C7_7 
REMARK    2  A    between atoms: C7_7  and  C8_8 
REMARK    3  A    between atoms: C7_7  and  N3_27 
REMARK       I    between atoms: C8_8  and  N1_10 
REMARK    4  A    between atoms: N1_10  and  C9_11 
REMARK    5  A    between atoms: C14_16  and  C16_20 
ROOT
ATOM      1  C8  <0> d          49.793  47.577  39.964  0.00  0.00     0.253 C 
ATOM      2  O1  <0> d          48.658  47.165  39.850  0.00  0.00    -0.271 OA
ATOM      3  N1  <0> d          50.057  48.599  40.801  0.00  0.00    -0.344 N 
ATOM      4  H9  <0> d          50.965  48.929  40.892  0.00  0.00     0.163 HD
ENDROOT
BRANCH   3   5
ATOM      5  C9  <0> d          48.974  49.212  41.574  0.00  0.00     0.200 C 
ATOM      6  C15 <0> d          49.158  50.685  41.826  0.00  0.00     0.250 C 
ATOM      7  N2  <0> d          48.938  50.552  43.121  0.00  0.00    -0.302 N 
ATOM      8  O2  <0> d          49.412  51.631  41.111  0.00  0.00    -0.271 OA
ATOM      9  C10 <0> d          49.135  49.082  43.074  0.00  0.00     0.125 C 
ATOM     10  C14 <0> d          48.564  51.289  44.268  0.00  0.00     0.133 C 
ATOM     11  C11 <0> d          47.951  48.468  43.839  0.00  0.00     0.034 C 
ATOM     12  C12 <0> d          47.938  49.063  45.248  0.00  0.00     0.056 C 
ATOM     13  C13 <0> d          48.068  50.554  45.278  0.00  0.00     0.045 C 
ATOM     14 Cl1  <0> d          47.550  51.386  46.710  0.00  0.00    -0.086 Cl
BRANCH  10  15
ATOM     15  C16 <0> d          48.709  52.750  44.350  0.00  0.00     0.228 C 
ATOM     16  O3  <0> d          49.797  53.242  44.572  0.00  0.00    -0.643 OA
ATOM     17  O4  <0> d          47.633  53.545  44.178  0.00  0.00    -0.643 OA
ENDBRANCH  10  15
ENDBRANCH   3   5
BRANCH   1  18
ATOM     18  C7  <0> d          50.906  46.945  39.169  0.00  0.00     0.307 C 
BRANCH  18  19
ATOM     19  C4  <0> d          50.832  47.415  37.740  0.00  0.00    -0.019 A 
ATOM     20  C3  <0> d          50.061  46.725  36.823  0.00  0.00     0.010 A 
ATOM     21  C2  <0> d          49.994  47.156  35.511  0.00  0.00     0.001 A 
ATOM     22  C1  <0> d          50.695  48.279  35.116  0.00  0.00     0.000 A 
ATOM     23  C6  <0> d          51.465  48.972  36.033  0.00  0.00     0.001 A 
ATOM     24  C5  <0> d          51.529  48.542  37.346  0.00  0.00     0.010 A 
ENDBRANCH  18  19
BRANCH  18  25
ATOM     25  N3  <0> d          50.792  45.477  39.197  0.00  0.00    -0.062 N 
ATOM     26  H14 <0> d          50.657  45.156  40.154  0.00  0.00     0.275 HD
ATOM     27  H15 <0> d          50.004  45.177  38.624  0.00  0.00     0.275 HD
ATOM     28  H16 <0> d          51.654  45.064  38.823  0.00  0.00     0.275 HD
ENDBRANCH  18  25
ENDBRANCH   1  18
TORSDOF 5
ENDMDL
MODEL 7
REMARK VINA RESULT:      -8.3      3.285      3.877
REMARK  5 active torsions:
REMARK  status: ('A' for Active; 'I' for Inactive)
REMARK    1  A    between atoms: C4_4  and  C7_7 
REMARK    2  A    between atoms: C7_7  and  C8_8 
REMARK    3  A    between atoms: C7_7  and  N3_27 
REMARK       I    between atoms: C8_8  and  N1_10 
REMARK    4  A    between atoms: N1_10  and  C9_11 
REMARK    5  A    between atoms: C14_16  and  C16_20 
ROOT
ATOM      1  C8  <0> d          50.793  49.612  39.360  0.00  0.00     0.253 C 
ATOM      2  O1  <0> d          49.762  49.237  38.842  0.00  0.00    -0.271 OA
ATOM      3  N1  <0> d          50.820  49.891  40.678  0.00  0.00    -0.344 N 
ATOM      4  H9  <0> d          51.644  50.191  41.093  0.00  0.00     0.163 HD
ENDROOT
BRANCH   3   5
ATOM      5  C9  <0> d          49.607  49.742  41.485  0.00  0.00     0.200 C 
ATOM      6  C15 <0> d          48.800  51.006  41.618  0.00  0.00     0.250 C 
ATOM      7  N2  <0> d          48.733  50.897  42.932  0.00  0.00    -0.302 N 
ATOM      8  O2  <0> d          48.374  51.815  40.821  0.00  0.00    -0.271 OA
ATOM      9  C10 <0> d          49.832  49.901  42.974  0.00  0.00     0.125 C 
ATOM     10  C14 <0> d          47.986  51.335  44.049  0.00  0.00     0.133 C 
ATOM     11  C11 <0> d          49.333  48.753  43.868  0.00  0.00     0.034 C 
ATOM     12  C12 <0> d          48.956  49.342  45.229  0.00  0.00     0.056 C 
ATOM     13  C13 <0> d          48.094  50.562  45.143  0.00  0.00     0.045 C 
ATOM     14 Cl1  <0> d          47.178  51.010  46.548  0.00  0.00    -0.086 Cl
BRANCH  10  15
ATOM     15  C16 <0> d          47.154  52.547  44.017  0.00  0.00     0.228 C 
ATOM     16  O3  <0> d          47.650  53.632  44.249  0.00  0.00    -0.643 OA
ATOM     17  O4  <0> d          45.840  52.456  43.728  0.00  0.00    -0.643 OA
ENDBRANCH  10  15
ENDBRANCH   3   5
BRANCH   1  18
ATOM     18  C7  <0> d          52.040  49.764  38.530  0.00  0.00     0.307 C 
BRANCH  18  19
ATOM     19  C4  <0> d          52.480  51.205  38.545  0.00  0.00    -0.019 A 
ATOM     20  C3  <0> d          53.500  51.609  39.386  0.00  0.00     0.010 A 
ATOM     21  C2  <0> d          53.903  52.932  39.400  0.00  0.00     0.001 A 
ATOM     22  C1  <0> d          53.287  53.850  38.572  0.00  0.00     0.000 A 
ATOM     23  C6  <0> d          52.268  53.447  37.729  0.00  0.00     0.001 A 
ATOM     24  C5  <0> d          51.868  52.123  37.712  0.00  0.00     0.010 A 
ENDBRANCH  18  19
BRANCH  18  25
ATOM     25  N3  <0> d          51.787  49.355  37.138  0.00  0.00    -0.062 N 
ATOM     26  H14 <0> d          51.999  50.124  36.504  0.00  0.00     0.275 HD
ATOM     27  H15 <0> d          52.365  48.550  36.900  0.00  0.00     0.275 HD
ATOM     28  H16 <0> d          50.798  49.100  37.036  0.00  0.00     0.275 HD
ENDBRANCH  18  25
ENDBRANCH   1  18
TORSDOF 5
ENDMDL
MODEL 8
REMARK VINA RESULT:      -8.2      1.689      2.138
REMARK  5 active torsions:
REMARK  status: ('A' for Active; 'I' for Inactive)
REMARK    1  A    between atoms: C4_4  and  C7_7 
REMARK    2  A    between atoms: C7_7  and  C8_8 
REMARK    3  A    between atoms: C7_7  and  N3_27 
REMARK       I    between atoms: C8_8  and  N1_10 
REMARK    4  A    between atoms: N1_10  and  C9_11 
REMARK    5  A    between atoms: C14_16  and  C16_20 
ROOT
ATOM      1  C8  <0> d          51.692  48.375  40.728  0.00  0.00     0.253 C 
ATOM      2  O1  <0> d          52.639  47.902  41.321  0.00  0.00    -0.271 OA
ATOM      3  N1  <0> d          50.557  48.663  41.395  0.00  0.00    -0.344 N 
ATOM      4  H9  <0> d          49.800  49.042  40.922  0.00  0.00     0.163 HD
ENDROOT
BRANCH   3   5
ATOM      5  C9  <0> d          50.465  48.403  42.834  0.00  0.00     0.200 C 
ATOM      6  C15 <0> d          49.589  47.233  43.192  0.00  0.00     0.250 C 
ATOM      7  N2  <0> d          48.910  47.936  44.079  0.00  0.00    -0.302 N 
ATOM      8  O2  <0> d          49.530  46.084  42.809  0.00  0.00    -0.271 OA
ATOM      9  C10 <0> d          49.411  49.226  43.544  0.00  0.00     0.125 C 
ATOM     10  C14 <0> d          48.077  47.791  45.212  0.00  0.00     0.133 C 
ATOM     11  C11 <0> d          49.882  50.039  44.761  0.00  0.00     0.034 C 
ATOM     12  C12 <0> d          48.704  50.167  45.730  0.00  0.00     0.056 C 
ATOM     13  C13 <0> d          48.004  48.873  46.006  0.00  0.00     0.045 C 
ATOM     14 Cl1  <0> d          47.029  48.766  47.438  0.00  0.00    -0.086 Cl
BRANCH  10  15
ATOM     15  C16 <0> d          47.344  46.549  45.500  0.00  0.00     0.228 C 
ATOM     16  O3  <0> d          47.870  45.669  46.152  0.00  0.00    -0.643 OA
ATOM     17  O4  <0> d          46.086  46.387  45.041  0.00  0.00    -0.643 OA
ENDBRANCH  10  15
ENDBRANCH   3   5
BRANCH   1  18
ATOM     18  C7  <0> d          51.787  48.643  39.249  0.00  0.00     0.307 C 
BRANCH  18  19
ATOM     19  C4  <0> d          52.092  50.100  39.021  0.00  0.00    -0.019 A 
ATOM     20  C3  <0> d          51.429  50.800  38.031  0.00  0.00     0.010 A 
ATOM     21  C2  <0> d          51.710  52.138  37.821  0.00  0.00     0.001 A 
ATOM     22  C1  <0> d          52.652  52.776  38.604  0.00  0.00     0.000 A 
ATOM     23  C6  <0> d          53.314  52.078  39.597  0.00  0.00     0.001 A 
ATOM     24  C5  <0> d          53.031  50.741  39.809  0.00  0.00     0.010 A 
ENDBRANCH  18  19
BRANCH  18  25
ATOM     25  N3  <0> d          50.517  48.310  38.582  0.00  0.00    -0.062 N 
ATOM     26  H14 <0> d          49.903  49.122  38.575  0.00  0.00     0.275 HD
ATOM     27  H15 <0> d          50.694  48.010  37.624  0.00  0.00     0.275 HD
ATOM     28  H16 <0> d          50.058  47.547  39.093  0.00  0.00     0.275 HD
ENDBRANCH  18  25
ENDBRANCH   1  18
TORSDOF 5
ENDMDL
MODEL 9
REMARK VINA RESULT:      -8.1      2.759      3.582
REMARK  5 active torsions:
REMARK  status: ('A' for Active; 'I' for Inactive)
REMARK    1  A    between atoms: C4_4  and  C7_7 
REMARK    2  A    between atoms: C7_7  and  C8_8 
REMARK    3  A    between atoms: C7_7  and  N3_27 
REMARK       I    between atoms: C8_8  and  N1_10 
REMARK    4  A    between atoms: N1_10  and  C9_11 
REMARK    5  A    between atoms: C14_16  and  C16_20 
ROOT
ATOM      1  C8  <0> d          50.749  47.701  38.823  0.00  0.00     0.253 C 
ATOM      2  O1  <0> d          49.580  47.574  38.524  0.00  0.00    -0.271 OA
ATOM      3  N1  <0> d          51.100  47.856  40.115  0.00  0.00    -0.344 N 
ATOM      4  H9  <0> d          52.034  47.957  40.354  0.00  0.00     0.163 HD
ENDROOT
BRANCH   3   5
ATOM      5  C9  <0> d          50.071  47.874  41.157  0.00  0.00     0.200 C 
ATOM      6  C15 <0> d          50.022  49.152  41.950  0.00  0.00     0.250 C 
ATOM      7  N2  <0> d          50.055  48.508  43.103  0.00  0.00    -0.302 N 
ATOM      8  O2  <0> d          49.974  50.325  41.646  0.00  0.00    -0.271 OA
ATOM      9  C10 <0> d          50.506  47.247  42.465  0.00  0.00     0.125 C 
ATOM     10  C14 <0> d          49.753  48.666  44.475  0.00  0.00     0.133 C 
ATOM     11  C11 <0> d          49.602  46.137  43.027  0.00  0.00     0.034 C 
ATOM     12  C12 <0> d          49.720  46.156  44.552  0.00  0.00     0.056 C 
ATOM     13  C13 <0> d          49.579  47.519  45.154  0.00  0.00     0.045 C 
ATOM     14 Cl1  <0> d          49.170  47.626  46.837  0.00  0.00    -0.086 Cl
BRANCH  10  15
ATOM     15  C16 <0> d          49.640  49.987  45.112  0.00  0.00     0.228 C 
ATOM     16  O3  <0> d          50.632  50.543  45.540  0.00  0.00    -0.643 OA
ATOM     17  O4  <0> d          48.435  50.582  45.221  0.00  0.00    -0.643 OA
ENDBRANCH  10  15
ENDBRANCH   3   5
BRANCH   1  18
ATOM     18  C7  <0> d          51.807  47.682  37.750  0.00  0.00     0.307 C 
BRANCH  18  19
ATOM     19  C4  <0> d          51.640  48.886  36.860  0.00  0.00    -0.019 A 
ATOM     20  C3  <0> d          51.870  50.154  37.361  0.00  0.00     0.010 A 
ATOM     21  C2  <0> d          51.715  51.259  36.544  0.00  0.00     0.001 A 
ATOM     22  C1  <0> d          51.333  51.096  35.227  0.00  0.00     0.000 A 
ATOM     23  C6  <0> d          51.104  49.828  34.725  0.00  0.00     0.001 A 
ATOM     24  C5  <0> d          51.262  48.723  35.541  0.00  0.00     0.010 A 
ENDBRANCH  18  19
BRANCH  18  25
ATOM     25  N3  <0> d          51.692  46.463  36.933  0.00  0.00    -0.062 N 
ATOM     26  H14 <0> d          52.500  46.377  36.319  0.00  0.00     0.275 HD
ATOM     27  H15 <0> d          51.635  45.643  37.535  0.00  0.00     0.275 HD
ATOM     28  H16 <0> d          50.841  46.519  36.361  0.00  0.00     0.275 HD
ENDBRANCH  18  25
ENDBRANCH   1  18
TORSDOF 5
ENDMDL
MODEL 10
REMARK VINA RESULT:      -8.1      1.848      2.352
REMARK  5 active torsions:
REMARK  status: ('A' for Active; 'I' for Inactive)
REMARK    1  A    between atoms: C4_4  and  C7_7 
REMARK    2  A    between atoms: C7_7  and  C8_8 
REMARK    3  A    between atoms: C7_7  and  N3_27 
REMARK       I    between atoms: C8_8  and  N1_10 
REMARK    4  A    between atoms: N1_10  and  C9_11 
REMARK    5  A    between atoms: C14_16  and  C16_20 
ROOT
ATOM      1  C8  <0> d          51.269  49.508  40.972  0.00  0.00     0.253 C 
ATOM      2  O1  <0> d          51.263  50.705  41.168  0.00  0.00    -0.271 OA
ATOM      3  N1  <0> d          50.676  48.679  41.854  0.00  0.00    -0.344 N 
ATOM      4  H9  <0> d          50.681  47.722  41.697  0.00  0.00     0.163 HD
ENDROOT
BRANCH   3   5
ATOM      5  C9  <0> d          50.023  49.222  43.047  0.00  0.00     0.200 C 
ATOM      6  C15 <0> d          50.438  48.555  44.331  0.00  0.00     0.250 C 
ATOM      7  N2  <0> d          49.187  48.361  44.705  0.00  0.00    -0.302 N 
ATOM      8  O2  <0> d          51.512  48.294  44.830  0.00  0.00    -0.271 OA
ATOM      9  C10 <0> d          48.666  48.618  43.339  0.00  0.00     0.125 C 
ATOM     10  C14 <0> d          48.393  48.108  45.846  0.00  0.00     0.133 C 
ATOM     11  C11 <0> d          47.499  49.604  43.506  0.00  0.00     0.034 C 
ATOM     12  C12 <0> d          46.484  48.980  44.466  0.00  0.00     0.056 C 
ATOM     13  C13 <0> d          47.094  48.429  45.717  0.00  0.00     0.045 C 
ATOM     14 Cl1  <0> d          46.055  48.182  47.086  0.00  0.00    -0.086 Cl
BRANCH  10  15
ATOM     15  C16 <0> d          48.945  47.535  47.082  0.00  0.00     0.228 C 
ATOM     16  O3  <0> d          49.105  46.334  47.178  0.00  0.00    -0.643 OA
ATOM     17  O4  <0> d          49.277  48.342  48.111  0.00  0.00    -0.643 OA
ENDBRANCH  10  15
ENDBRANCH   3   5
BRANCH   1  18
ATOM     18  C7  <0> d          51.940  48.950  39.744  0.00  0.00     0.307 C 
BRANCH  18  19
ATOM     19  C4  <0> d          51.261  49.491  38.513  0.00  0.00    -0.019 A 
ATOM     20  C3  <0> d          51.975  50.257  37.610  0.00  0.00     0.010 A 
ATOM     21  C2  <0> d          51.351  50.755  36.480  0.00  0.00     0.001 A 
ATOM     22  C1  <0> d          50.016  50.484  36.252  0.00  0.00     0.000 A 
ATOM     23  C6  <0> d          49.303  49.716  37.154  0.00  0.00     0.001 A 
ATOM     24  C5  <0> d          49.927  49.215  38.282  0.00  0.00     0.010 A 
ENDBRANCH  18  19
BRANCH  18  25
ATOM     25  N3  <0> d          51.853  47.480  39.732  0.00  0.00    -0.062 N 
ATOM     26  H14 <0> d          51.670  47.133  40.673  0.00  0.00     0.275 HD
ATOM     27  H15 <0> d          51.105  47.179  39.109  0.00  0.00     0.275 HD
ATOM     28  H16 <0> d          52.743  47.092  39.399  0.00  0.00     0.275 HD
ENDBRANCH  18  25
ENDBRANCH   1  18
TORSDOF 5
ENDMDL
