MODEL 1
REMARK VINA RESULT:      -7.1      0.000      0.000
REMARK  10 active torsions:
REMARK  status: ('A' for Active; 'I' for Inactive)
REMARK    1  A    between atoms: C2_2  and  C3_3 
REMARK    2  A    between atoms: C2_2  and  N4_36 
REMARK    3  A    between atoms: C6_6  and  N3_34 
REMARK    4  A    between atoms: C7_7  and  O2_9 
REMARK    5  A    between atoms: O2_9  and  C8_10 
REMARK    6  A    between atoms: C9_11  and  N2_32 
REMARK    7  A    between atoms: C10_12  and  O5_20 
REMARK    8  A    between atoms: C11_13  and  O4_18 
REMARK    9  A    between atoms: C12_14  and  N1_29 
REMARK   10  A    between atoms: C13_15  and  O3_16 
ROOT
ATOM      1  C8  <0> d          51.684  47.656  38.745  0.00  0.00     0.188 C 
ATOM      2  C9  <0> d          50.926  46.329  38.794  0.00  0.00     0.246 C 
ATOM      3  C10 <0> d          51.545  45.427  39.863  0.00  0.00     0.182 C 
ATOM      4  C11 <0> d          51.458  46.116  41.226  0.00  0.00     0.184 C 
ATOM      5  C12 <0> d          52.217  47.444  41.176  0.00  0.00     0.247 C 
ATOM      6  C13 <0> d          51.597  48.345  40.107  0.00  0.00     0.182 C 
ENDROOT
BRANCH   1   7
ATOM      7  O2  <0> d          51.105  48.499  37.746  0.00  0.00    -0.349 OA
BRANCH   7   8
ATOM      8  C7  <0> d          52.063  49.158  36.914  0.00  0.00     0.291 C 
ATOM      9  C6  <0> d          51.458  49.398  35.529  0.00  0.00     0.238 C 
ATOM     10  C5  <0> d          50.245  50.325  35.664  0.00  0.00     0.040 C 
ATOM     11  C4  <0> d          50.682  51.627  36.341  0.00  0.00     0.036 C 
ATOM     12  C3  <0> d          51.318  51.300  37.696  0.00  0.00     0.154 C 
ATOM     13  O1  <0> d          52.420  50.412  37.501  0.00  0.00    -0.352 OA
BRANCH   9  14
ATOM     14  N3  <0> d          51.018  48.110  34.967  0.00  0.00    -0.070 N 
ATOM     15  H28 <0> d          50.443  48.269  34.141  0.00  0.00     0.274 HD
ATOM     16  H29 <0> d          51.826  47.545  34.713  0.00  0.00     0.274 HD
ATOM     17  H35 <0> d          50.463  47.606  35.669  0.00  0.00     0.274 HD
ENDBRANCH   9  14
BRANCH  12  18
ATOM     18  C2  <0> d          51.812  52.592  38.351  0.00  0.00     0.208 C 
ATOM     19  C1  <0> d          52.119  53.627  37.268  0.00  0.00     0.042 C 
BRANCH  18  20
ATOM     20  N4  <0> d          53.022  52.298  39.138  0.00  0.00    -0.073 N 
ATOM     21  H30 <0> d          53.201  51.294  39.145  0.00  0.00     0.274 HD
ATOM     22  H31 <0> d          53.825  52.782  38.741  0.00  0.00     0.274 HD
ATOM     23  H36 <0> d          52.883  52.619  40.104  0.00  0.00     0.274 HD
ENDBRANCH  18  20
ENDBRANCH  12  18
ENDBRANCH   7   8
ENDBRANCH   1   7
BRANCH   6  24
ATOM     24  O3  <0> d          50.227  48.593  40.429  0.00  0.00    -0.391 OA
ATOM     25  H18 <0> d          50.037  48.577  41.377  0.00  0.00     0.210 HD
ENDBRANCH   6  24
BRANCH   2  26
ATOM     26  N2  <0> d          49.520  46.596  39.147  0.00  0.00    -0.070 N 
ATOM     27  H26 <0> d          48.919  45.871  38.758  0.00  0.00     0.274 HD
ATOM     28  H27 <0> d          49.412  46.617  40.161  0.00  0.00     0.274 HD
ATOM     29  H34 <0> d          49.242  47.506  38.762  0.00  0.00     0.274 HD
ENDBRANCH   2  26
BRANCH   5  30
ATOM     30  N1  <0> d          52.124  48.104  42.491  0.00  0.00    -0.070 N 
ATOM     31  C14 <0> d          52.957  47.394  43.480  0.00  0.00     0.267 C 
ATOM     32  H32 <0> d          51.146  48.098  42.806  0.00  0.00     0.277 HD
ATOM     33  H33 <0> d          52.451  49.074  42.408  0.00  0.00     0.277 HD
ENDBRANCH   5  30
BRANCH   3  34
ATOM     34  O5  <0> d          50.836  44.188  39.910  0.00  0.00    -0.391 OA
ATOM     35  H25 <0> d          50.317  44.061  40.715  0.00  0.00     0.210 HD
ENDBRANCH   3  34
BRANCH   4  36
ATOM     36  O4  <0> d          50.088  46.363  41.547  0.00  0.00    -0.386 OA
ATOM     37  C15 <0> d          49.685  45.845  42.817  0.00  0.00     0.202 C 
ENDBRANCH   4  36
TORSDOF 10
ENDMDL
MODEL 2
REMARK VINA RESULT:      -7.0      4.019      6.261
REMARK  10 active torsions:
REMARK  status: ('A' for Active; 'I' for Inactive)
REMARK    1  A    between atoms: C2_2  and  C3_3 
REMARK    2  A    between atoms: C2_2  and  N4_36 
REMARK    3  A    between atoms: C6_6  and  N3_34 
REMARK    4  A    between atoms: C7_7  and  O2_9 
REMARK    5  A    between atoms: O2_9  and  C8_10 
REMARK    6  A    between atoms: C9_11  and  N2_32 
REMARK    7  A    between atoms: C10_12  and  O5_20 
REMARK    8  A    between atoms: C11_13  and  O4_18 
REMARK    9  A    between atoms: C12_14  and  N1_29 
REMARK   10  A    between atoms: C13_15  and  O3_16 
ROOT
ATOM      1  C8  <0> d          49.814  48.284  44.554  0.00  0.00     0.188 C 
ATOM      2  C9  <0> d          49.602  47.295  45.700  0.00  0.00     0.246 C 
ATOM      3  C10 <0> d          48.976  48.022  46.891  0.00  0.00     0.182 C 
ATOM      4  C11 <0> d          47.631  48.620  46.476  0.00  0.00     0.184 C 
ATOM      5  C12 <0> d          47.844  49.609  45.329  0.00  0.00     0.247 C 
ATOM      6  C13 <0> d          48.470  48.881  44.137  0.00  0.00     0.182 C 
ENDROOT
BRANCH   1   7
ATOM      7  O2  <0> d          50.399  47.604  43.439  0.00  0.00    -0.349 OA
BRANCH   7   8
ATOM      8  C7  <0> d          51.766  47.947  43.201  0.00  0.00     0.291 C 
ATOM      9  C6  <0> d          52.464  46.791  42.481  0.00  0.00     0.238 C 
ATOM     10  C5  <0> d          51.796  46.569  41.120  0.00  0.00     0.040 C 
ATOM     11  C4  <0> d          51.851  47.872  40.317  0.00  0.00     0.036 C 
ATOM     12  C3  <0> d          51.176  48.987  41.121  0.00  0.00     0.154 C 
ATOM     13  O1  <0> d          51.826  49.121  42.386  0.00  0.00    -0.352 OA
BRANCH   9  14
ATOM     14  N3  <0> d          52.326  45.567  43.289  0.00  0.00    -0.070 N 
ATOM     15  H28 <0> d          52.943  44.841  42.929  0.00  0.00     0.274 HD
ATOM     16  H29 <0> d          52.561  45.761  44.260  0.00  0.00     0.274 HD
ATOM     17  H35 <0> d          51.355  45.238  43.239  0.00  0.00     0.274 HD
ENDBRANCH   9  14
BRANCH  12  18
ATOM     18  C2  <0> d          51.280  50.305  40.351  0.00  0.00     0.208 C 
ATOM     19  C1  <0> d          52.738  50.550  39.957  0.00  0.00     0.042 C 
BRANCH  18  20
ATOM     20  N4  <0> d          50.789  51.400  41.205  0.00  0.00    -0.073 N 
ATOM     21  H30 <0> d          51.232  51.356  42.122  0.00  0.00     0.274 HD
ATOM     22  H31 <0> d          50.993  52.300  40.774  0.00  0.00     0.274 HD
ATOM     23  H36 <0> d          49.773  51.308  41.320  0.00  0.00     0.274 HD
ENDBRANCH  18  20
ENDBRANCH  12  18
ENDBRANCH   7   8
ENDBRANCH   1   7
BRANCH   6  24
ATOM     24  O3  <0> d          47.597  47.836  43.707  0.00  0.00    -0.391 OA
ATOM     25  H18 <0> d          47.318  47.911  42.784  0.00  0.00     0.210 HD
ENDBRANCH   6  24
BRANCH   2  26
ATOM     26  N2  <0> d          48.683  46.233  45.250  0.00  0.00    -0.070 N 
ATOM     27  H26 <0> d          48.047  46.599  44.543  0.00  0.00     0.274 HD
ATOM     28  H27 <0> d          49.213  45.455  44.858  0.00  0.00     0.274 HD
ATOM     29  H34 <0> d          48.138  45.896  46.051  0.00  0.00     0.274 HD
ENDBRANCH   2  26
BRANCH   5  30
ATOM     30  N1  <0> d          46.543  50.177  44.931  0.00  0.00    -0.070 N 
ATOM     31  C14 <0> d          46.329  51.479  45.591  0.00  0.00     0.267 C 
ATOM     32  H32 <0> d          45.793  49.532  45.206  0.00  0.00     0.277 HD
ATOM     33  H33 <0> d          46.526  50.308  43.913  0.00  0.00     0.277 HD
ENDBRANCH   5  30
BRANCH   3  34
ATOM     34  O5  <0> d          48.776  47.097  47.962  0.00  0.00    -0.391 OA
ATOM     35  H25 <0> d          49.593  46.811  48.393  0.00  0.00     0.210 HD
ENDBRANCH   3  34
BRANCH   4  36
ATOM     36  O4  <0> d          46.758  47.573  46.046  0.00  0.00    -0.386 OA
ATOM     37  C15 <0> d          45.530  47.502  46.774  0.00  0.00     0.202 C 
ENDBRANCH   4  36
TORSDOF 10
ENDMDL
MODEL 3
REMARK VINA RESULT:      -7.0      2.754      3.999
REMARK  10 active torsions:
REMARK  status: ('A' for Active; 'I' for Inactive)
REMARK    1  A    between atoms: C2_2  and  C3_3 
REMARK    2  A    between atoms: C2_2  and  N4_36 
REMARK    3  A    between atoms: C6_6  and  N3_34 
REMARK    4  A    between atoms: C7_7  and  O2_9 
REMARK    5  A    between atoms: O2_9  and  C8_10 
REMARK    6  A    between atoms: C9_11  and  N2_32 
REMARK    7  A    between atoms: C10_12  and  O5_20 
REMARK    8  A    between atoms: C11_13  and  O4_18 
REMARK    9  A    between atoms: C12_14  and  N1_29 
REMARK   10  A    between atoms: C13_15  and  O3_16 
ROOT
ATOM      1  C8  <0> d          50.479  47.757  41.609  0.00  0.00     0.188 C 
ATOM      2  C9  <0> d          51.063  46.610  42.434  0.00  0.00     0.246 C 
ATOM      3  C10 <0> d          51.615  47.159  43.751  0.00  0.00     0.182 C 
ATOM      4  C11 <0> d          50.489  47.832  44.537  0.00  0.00     0.184 C 
ATOM      5  C12 <0> d          49.904  48.979  43.710  0.00  0.00     0.247 C 
ATOM      6  C13 <0> d          49.352  48.429  42.393  0.00  0.00     0.182 C 
ENDROOT
BRANCH   1   7
ATOM      7  O2  <0> d          49.962  47.243  40.378  0.00  0.00    -0.349 OA
BRANCH   7   8
ATOM      8  C7  <0> d          50.852  47.389  39.269  0.00  0.00     0.291 C 
ATOM      9  C6  <0> d          50.734  46.165  38.356  0.00  0.00     0.238 C 
ATOM     10  C5  <0> d          49.308  46.088  37.801  0.00  0.00     0.040 C 
ATOM     11  C4  <0> d          48.984  47.393  37.069  0.00  0.00     0.036 C 
ATOM     12  C3  <0> d          49.170  48.569  38.032  0.00  0.00     0.154 C 
ATOM     13  O1  <0> d          50.508  48.566  38.534  0.00  0.00    -0.352 OA
BRANCH   9  14
ATOM     14  N3  <0> d          51.011  44.951  39.142  0.00  0.00    -0.070 N 
ATOM     15  H28 <0> d          50.585  45.029  40.065  0.00  0.00     0.274 HD
ATOM     16  H29 <0> d          50.637  44.133  38.665  0.00  0.00     0.274 HD
ATOM     17  H35 <0> d          52.026  44.842  39.250  0.00  0.00     0.274 HD
ENDBRANCH   9  14
BRANCH  12  18
ATOM     18  C2  <0> d          48.906  49.882  37.290  0.00  0.00     0.208 C 
ATOM     19  C1  <0> d          50.021  50.122  36.270  0.00  0.00     0.042 C 
BRANCH  18  20
ATOM     20  N4  <0> d          48.857  50.984  38.266  0.00  0.00    -0.073 N 
ATOM     21  H30 <0> d          48.274  51.741  37.910  0.00  0.00     0.274 HD
ATOM     22  H31 <0> d          48.477  50.652  39.151  0.00  0.00     0.274 HD
ATOM     23  H36 <0> d          49.807  51.339  38.423  0.00  0.00     0.274 HD
ENDBRANCH  18  20
ENDBRANCH  12  18
ENDBRANCH   7   8
ENDBRANCH   1   7
BRANCH   6  24
ATOM     24  O3  <0> d          48.327  47.473  42.670  0.00  0.00    -0.391 OA
ATOM     25  H18 <0> d          48.588  46.556  42.503  0.00  0.00     0.210 HD
ENDBRANCH   6  24
BRANCH   2  26
ATOM     26  N2  <0> d          49.992  45.641  42.730  0.00  0.00    -0.070 N 
ATOM     27  H26 <0> d          50.141  44.784  42.200  0.00  0.00     0.274 HD
ATOM     28  H27 <0> d          49.981  45.425  43.726  0.00  0.00     0.274 HD
ATOM     29  H34 <0> d          49.087  46.047  42.466  0.00  0.00     0.274 HD
ENDBRANCH   2  26
BRANCH   5  30
ATOM     30  N1  <0> d          48.815  49.619  44.472  0.00  0.00    -0.070 N 
ATOM     31  C14 <0> d          49.370  50.444  45.561  0.00  0.00     0.267 C 
ATOM     32  H32 <0> d          48.210  48.892  44.873  0.00  0.00     0.277 HD
ATOM     33  H33 <0> d          48.265  50.214  43.842  0.00  0.00     0.277 HD
ENDBRANCH   5  30
BRANCH   3  34
ATOM     34  O5  <0> d          52.161  46.087  44.523  0.00  0.00    -0.391 OA
ATOM     35  H25 <0> d          51.950  46.134  45.465  0.00  0.00     0.210 HD
ENDBRANCH   3  34
BRANCH   4  36
ATOM     36  O4  <0> d          49.464  46.874  44.813  0.00  0.00    -0.386 OA
ATOM     37  C15 <0> d          49.279  46.604  46.204  0.00  0.00     0.202 C 
ENDBRANCH   4  36
TORSDOF 10
ENDMDL
MODEL 1
REMARK VINA RESULT:      -7.0      0.000      0.000
REMARK  10 active torsions:
REMARK  status: ('A' for Active; 'I' for Inactive)
REMARK    1  A    between atoms: C2_2  and  C3_3 
REMARK    2  A    between atoms: C2_2  and  N4_36 
REMARK    3  A    between atoms: C6_6  and  N3_34 
REMARK    4  A    between atoms: C7_7  and  O2_9 
REMARK    5  A    between atoms: O2_9  and  C8_10 
REMARK    6  A    between atoms: C9_11  and  N2_32 
REMARK    7  A    between atoms: C10_12  and  O5_20 
REMARK    8  A    between atoms: C11_13  and  O4_18 
REMARK    9  A    between atoms: C12_14  and  N1_29 
REMARK   10  A    between atoms: C13_15  and  O3_16 
ROOT
ATOM      1  C8  <0> d          49.787  48.291  44.536  0.00  0.00     0.188 C 
ATOM      2  C9  <0> d          49.587  47.304  45.687  0.00  0.00     0.246 C 
ATOM      3  C10 <0> d          48.961  48.032  46.879  0.00  0.00     0.182 C 
ATOM      4  C11 <0> d          47.610  48.617  46.466  0.00  0.00     0.184 C 
ATOM      5  C12 <0> d          47.809  49.604  45.315  0.00  0.00     0.247 C 
ATOM      6  C13 <0> d          48.435  48.875  44.123  0.00  0.00     0.182 C 
ENDROOT
BRANCH   1   7
ATOM      7  O2  <0> d          50.371  47.611  43.422  0.00  0.00    -0.349 OA
BRANCH   7   8
ATOM      8  C7  <0> d          51.741  47.946  43.188  0.00  0.00     0.291 C 
ATOM      9  C6  <0> d          52.434  46.788  42.467  0.00  0.00     0.238 C 
ATOM     10  C5  <0> d          51.769  46.574  41.103  0.00  0.00     0.040 C 
ATOM     11  C4  <0> d          51.836  47.880  40.304  0.00  0.00     0.036 C 
ATOM     12  C3  <0> d          51.165  48.996  41.109  0.00  0.00     0.154 C 
ATOM     13  O1  <0> d          51.812  49.121  42.378  0.00  0.00    -0.352 OA
BRANCH   9  14
ATOM     14  N3  <0> d          52.285  45.562  43.271  0.00  0.00    -0.070 N 
ATOM     15  H28 <0> d          53.165  45.338  43.732  0.00  0.00     0.274 HD
ATOM     16  H29 <0> d          51.558  45.691  43.973  0.00  0.00     0.274 HD
ATOM     17  H35 <0> d          52.021  44.785  42.655  0.00  0.00     0.274 HD
ENDBRANCH   9  14
BRANCH  12  18
ATOM     18  C2  <0> d          51.281  50.316  40.344  0.00  0.00     0.208 C 
ATOM     19  C1  <0> d          52.745  50.562  39.972  0.00  0.00     0.042 C 
BRANCH  18  20
ATOM     20  N4  <0> d          50.776  51.408  41.193  0.00  0.00    -0.073 N 
ATOM     21  H30 <0> d          51.533  51.790  41.759  0.00  0.00     0.274 HD
ATOM     22  H31 <0> d          50.379  52.147  40.614  0.00  0.00     0.274 HD
ATOM     23  H36 <0> d          50.045  51.042  41.814  0.00  0.00     0.274 HD
ENDBRANCH  18  20
ENDBRANCH  12  18
ENDBRANCH   7   8
ENDBRANCH   1   7
BRANCH   6  24
ATOM     24  O3  <0> d          47.568  47.821  43.701  0.00  0.00    -0.391 OA
ATOM     25  H18 <0> d          46.628  48.015  43.814  0.00  0.00     0.210 HD
ENDBRANCH   6  24
BRANCH   2  26
ATOM     26  N2  <0> d          48.676  46.234  45.246  0.00  0.00    -0.070 N 
ATOM     27  H26 <0> d          49.119  45.325  45.369  0.00  0.00     0.274 HD
ATOM     28  H27 <0> d          47.812  46.265  45.785  0.00  0.00     0.274 HD
ATOM     29  H34 <0> d          48.455  46.367  44.251  0.00  0.00     0.274 HD
ENDBRANCH   2  26
BRANCH   5  30
ATOM     30  N1  <0> d          46.502  50.160  44.921  0.00  0.00    -0.070 N 
ATOM     31  C14 <0> d          46.291  51.472  45.559  0.00  0.00     0.267 C 
ATOM     32  H32 <0> d          45.757  49.517  45.215  0.00  0.00     0.277 HD
ATOM     33  H33 <0> d          46.475  50.271  43.900  0.00  0.00     0.277 HD
ENDBRANCH   5  30
BRANCH   3  34
ATOM     34  O5  <0> d          48.775  47.110  47.955  0.00  0.00    -0.391 OA
ATOM     35  H25 <0> d          49.131  46.228  47.784  0.00  0.00     0.210 HD
ENDBRANCH   3  34
BRANCH   4  36
ATOM     36  O4  <0> d          46.742  47.562  46.045  0.00  0.00    -0.386 OA
ATOM     37  C15 <0> d          45.516  47.489  46.775  0.00  0.00     0.202 C 
ENDBRANCH   4  36
TORSDOF 10
ENDMDL
MODEL 2
REMARK VINA RESULT:      -7.0      2.792      3.644
REMARK  10 active torsions:
REMARK  status: ('A' for Active; 'I' for Inactive)
REMARK    1  A    between atoms: C2_2  and  C3_3 
REMARK    2  A    between atoms: C2_2  and  N4_36 
REMARK    3  A    between atoms: C6_6  and  N3_34 
REMARK    4  A    between atoms: C7_7  and  O2_9 
REMARK    5  A    between atoms: O2_9  and  C8_10 
REMARK    6  A    between atoms: C9_11  and  N2_32 
REMARK    7  A    between atoms: C10_12  and  O5_20 
REMARK    8  A    between atoms: C11_13  and  O4_18 
REMARK    9  A    between atoms: C12_14  and  N1_29 
REMARK   10  A    between atoms: C13_15  and  O3_16 
ROOT
ATOM      1  C8  <0> d          50.464  47.749  41.618  0.00  0.00     0.188 C 
ATOM      2  C9  <0> d          51.049  46.603  42.445  0.00  0.00     0.246 C 
ATOM      3  C10 <0> d          51.595  47.154  43.765  0.00  0.00     0.182 C 
ATOM      4  C11 <0> d          50.462  47.822  44.545  0.00  0.00     0.184 C 
ATOM      5  C12 <0> d          49.876  48.968  43.718  0.00  0.00     0.247 C 
ATOM      6  C13 <0> d          49.330  48.416  42.399  0.00  0.00     0.182 C 
ENDROOT
BRANCH   1   7
ATOM      7  O2  <0> d          49.953  47.234  40.386  0.00  0.00    -0.349 OA
BRANCH   7   8
ATOM      8  C7  <0> d          50.844  47.385  39.278  0.00  0.00     0.291 C 
ATOM      9  C6  <0> d          50.737  46.161  38.366  0.00  0.00     0.238 C 
ATOM     10  C5  <0> d          49.312  46.073  37.808  0.00  0.00     0.040 C 
ATOM     11  C4  <0> d          48.982  47.376  37.073  0.00  0.00     0.036 C 
ATOM     12  C3  <0> d          49.158  48.554  38.036  0.00  0.00     0.154 C 
ATOM     13  O1  <0> d          50.494  48.558  38.542  0.00  0.00    -0.352 OA
BRANCH   9  14
ATOM     14  N3  <0> d          51.019  44.947  39.153  0.00  0.00    -0.070 N 
ATOM     15  H28 <0> d          50.490  44.966  40.024  0.00  0.00     0.274 HD
ATOM     16  H29 <0> d          50.764  44.118  38.621  0.00  0.00     0.274 HD
ATOM     17  H35 <0> d          52.021  44.912  39.370  0.00  0.00     0.274 HD
ENDBRANCH   9  14
BRANCH  12  18
ATOM     18  C2  <0> d          48.888  49.864  37.293  0.00  0.00     0.208 C 
ATOM     19  C1  <0> d          50.001  50.109  36.272  0.00  0.00     0.042 C 
BRANCH  18  20
ATOM     20  N4  <0> d          48.833  50.966  38.268  0.00  0.00    -0.073 N 
ATOM     21  H30 <0> d          49.771  51.181  38.606  0.00  0.00     0.274 HD
ATOM     22  H31 <0> d          48.430  51.796  37.836  0.00  0.00     0.274 HD
ATOM     23  H36 <0> d          48.248  50.684  39.063  0.00  0.00     0.274 HD
ENDBRANCH  18  20
ENDBRANCH  12  18
ENDBRANCH   7   8
ENDBRANCH   1   7
BRANCH   6  24
ATOM     24  O3  <0> d          48.309  47.456  42.671  0.00  0.00    -0.391 OA
ATOM     25  H18 <0> d          48.303  46.705  42.062  0.00  0.00     0.210 HD
ENDBRANCH   6  24
BRANCH   2  26
ATOM     26  N2  <0> d          49.981  45.631  42.736  0.00  0.00    -0.070 N 
ATOM     27  H26 <0> d          49.521  45.347  41.872  0.00  0.00     0.274 HD
ATOM     28  H27 <0> d          50.371  44.810  43.197  0.00  0.00     0.274 HD
ATOM     29  H34 <0> d          49.288  46.065  43.357  0.00  0.00     0.274 HD
ENDBRANCH   2  26
BRANCH   5  30
ATOM     30  N1  <0> d          48.783  49.604  44.476  0.00  0.00    -0.070 N 
ATOM     31  C14 <0> d          49.329  50.412  45.581  0.00  0.00     0.267 C 
ATOM     32  H32 <0> d          48.169  48.876  44.861  0.00  0.00     0.277 HD
ATOM     33  H33 <0> d          48.243  50.210  43.847  0.00  0.00     0.277 HD
ENDBRANCH   5  30
BRANCH   3  34
ATOM     34  O5  <0> d          52.142  46.084  44.537  0.00  0.00    -0.391 OA
ATOM     35  H25 <0> d          53.041  46.245  44.852  0.00  0.00     0.210 HD
ENDBRANCH   3  34
BRANCH   4  36
ATOM     36  O4  <0> d          49.440  46.861  44.818  0.00  0.00    -0.386 OA
ATOM     37  C15 <0> d          49.250  46.590  46.208  0.00  0.00     0.202 C 
ENDBRANCH   4  36
TORSDOF 10
ENDMDL
