MODEL 1
REMARK VINA RESULT:      -9.4      0.000      0.000
REMARK  4 active torsions:
REMARK  status: ('A' for Active; 'I' for Inactive)
REMARK    1  A    between atoms: C18_19  and  C19_20 
REMARK    2  A    between atoms: C18_19  and  O3_24 
REMARK    3  A    between atoms: C19_20  and  C20_21 
REMARK    4  A    between atoms: C20_21  and  C21_22 
ROOT
ATOM      1  C1  <0> d          50.498  48.201  39.628  0.00  0.00     0.021 C 
ATOM      2  C2  <0> d          51.164  48.859  40.836  0.00  0.00    -0.012 C 
ATOM      3  C3  <0> d          52.344  47.984  41.288  0.00  0.00     0.022 C 
ATOM      4  C4  <0> d          51.858  46.591  41.679  0.00  0.00     0.084 C 
ATOM      5  C5  <0> d          50.745  46.698  42.687  0.00  0.00     0.149 C 
ATOM      6  O1  <0> d          50.500  45.755  43.415  0.00  0.00    -0.293 OA
ATOM      7  C6  <0> d          49.994  47.875  42.804  0.00  0.00     0.058 C 
ATOM      8  C7  <0> d          50.168  48.927  41.966  0.00  0.00    -0.046 C 
ATOM      9  C8  <0> d          49.359  50.126  42.157  0.00  0.00     0.004 C 
ATOM     10  C9  <0> d          49.554  51.211  41.425  0.00  0.00    -0.021 C 
ATOM     11  C10 <0> d          50.633  51.329  40.388  0.00  0.00     0.018 C 
ATOM     12  C11 <0> d          51.693  50.249  40.506  0.00  0.00     0.006 C 
ATOM     13  C12 <0> d          52.680  50.219  39.350  0.00  0.00     0.007 C 
ATOM     14  C13 <0> d          52.074  50.423  37.960  0.00  0.00     0.013 C 
ATOM     15  C14 <0> d          51.167  51.630  37.968  0.00  0.00    -0.009 C 
ATOM     16  C15 <0> d          50.044  51.384  39.001  0.00  0.00     0.005 C 
ATOM     17  C16 <0> d          49.094  52.559  38.722  0.00  0.00     0.009 C 
ATOM     18  C17 <0> d          49.108  52.666  37.174  0.00  0.00     0.039 C 
ATOM     19  C18 <0> d          50.383  51.931  36.688  0.00  0.00     0.066 C 
ATOM     20  C22 <0> d          51.982  52.882  38.318  0.00  0.00     0.019 C 
ENDROOT
BRANCH  19  21
ATOM     21  C19 <0> d          50.006  50.657  35.941  0.00  0.00     0.049 C 
BRANCH  21  22
ATOM     22  C20 <0> d          50.730  50.622  34.593  0.00  0.00     0.116 C 
BRANCH  22  23
ATOM     23  C21 <0> d          51.629  49.414  34.537  0.00  0.00     0.172 C 
ATOM     24  O2  <0> d          51.165  48.327  34.294  0.00  0.00    -0.648 OA
ATOM     25  O4  <0> d          52.946  49.549  34.758  0.00  0.00    -0.648 OA
ENDBRANCH  22  23
ENDBRANCH  21  22
ENDBRANCH  19  21
BRANCH  19  26
ATOM     26  O3  <0> d          51.152  52.793  35.844  0.00  0.00    -0.389 OA
ATOM     27  H26 <0> d          51.834  53.296  36.311  0.00  0.00     0.210 HD
ENDBRANCH  19  26
TORSDOF 4
ENDMDL
MODEL 2
REMARK VINA RESULT:      -9.4      1.872      3.901
REMARK  4 active torsions:
REMARK  status: ('A' for Active; 'I' for Inactive)
REMARK    1  A    between atoms: C18_19  and  C19_20 
REMARK    2  A    between atoms: C18_19  and  O3_24 
REMARK    3  A    between atoms: C19_20  and  C20_21 
REMARK    4  A    between atoms: C20_21  and  C21_22 
ROOT
ATOM      1  C1  <0> d          51.936  48.652  41.020  0.00  0.00     0.021 C 
ATOM      2  C2  <0> d          50.811  47.646  41.253  0.00  0.00    -0.012 C 
ATOM      3  C3  <0> d          50.115  47.980  42.583  0.00  0.00     0.022 C 
ATOM      4  C4  <0> d          51.108  47.901  43.740  0.00  0.00     0.084 C 
ATOM      5  C5  <0> d          51.809  46.569  43.726  0.00  0.00     0.149 C 
ATOM      6  O1  <0> d          52.316  46.145  44.747  0.00  0.00    -0.293 OA
ATOM      7  C6  <0> d          51.879  45.807  42.552  0.00  0.00     0.058 C 
ATOM      8  C7  <0> d          51.405  46.265  41.368  0.00  0.00    -0.046 C 
ATOM      9  C8  <0> d          51.498  45.409  40.189  0.00  0.00     0.004 C 
ATOM     10  C9  <0> d          50.970  45.773  39.031  0.00  0.00    -0.021 C 
ATOM     11  C10 <0> d          50.197  47.045  38.836  0.00  0.00     0.018 C 
ATOM     12  C11 <0> d          49.770  47.689  40.142  0.00  0.00     0.006 C 
ATOM     13  C12 <0> d          49.170  49.078  39.982  0.00  0.00     0.007 C 
ATOM     14  C13 <0> d          49.877  49.990  38.977  0.00  0.00     0.013 C 
ATOM     15  C14 <0> d          50.087  49.253  37.676  0.00  0.00    -0.009 C 
ATOM     16  C15 <0> d          50.959  48.009  37.961  0.00  0.00     0.005 C 
ATOM     17  C16 <0> d          51.280  47.515  36.542  0.00  0.00     0.009 C 
ATOM     18  C17 <0> d          51.531  48.831  35.758  0.00  0.00     0.039 C 
ATOM     19  C18 <0> d          50.879  49.971  36.580  0.00  0.00     0.066 C 
ATOM     20  C22 <0> d          48.728  48.859  37.084  0.00  0.00     0.019 C 
ENDROOT
BRANCH  19  21
ATOM     21  C19 <0> d          51.953  50.884  37.162  0.00  0.00     0.049 C 
BRANCH  21  22
ATOM     22  C20 <0> d          51.594  52.343  36.874  0.00  0.00     0.116 C 
BRANCH  22  23
ATOM     23  C21 <0> d          52.399  53.245  37.772  0.00  0.00     0.172 C 
ATOM     24  O2  <0> d          52.702  54.354  37.400  0.00  0.00    -0.648 OA
ATOM     25  O4  <0> d          52.779  52.817  38.986  0.00  0.00    -0.648 OA
ENDBRANCH  22  23
ENDBRANCH  21  22
ENDBRANCH  19  21
BRANCH  19  26
ATOM     26  O3  <0> d          49.985  50.721  35.753  0.00  0.00    -0.389 OA
ATOM     27  H26 <0> d          49.301  51.197  36.243  0.00  0.00     0.210 HD
ENDBRANCH  19  26
TORSDOF 4
ENDMDL
MODEL 3
REMARK VINA RESULT:      -9.4      2.616      7.032
REMARK  4 active torsions:
REMARK  status: ('A' for Active; 'I' for Inactive)
REMARK    1  A    between atoms: C18_19  and  C19_20 
REMARK    2  A    between atoms: C18_19  and  O3_24 
REMARK    3  A    between atoms: C19_20  and  C20_21 
REMARK    4  A    between atoms: C20_21  and  C21_22 
ROOT
ATOM      1  C1  <0> d          49.717  48.432  39.193  0.00  0.00     0.021 C 
ATOM      2  C2  <0> d          51.080  47.881  38.779  0.00  0.00    -0.012 C 
ATOM      3  C3  <0> d          51.726  48.855  37.780  0.00  0.00     0.022 C 
ATOM      4  C4  <0> d          50.848  49.008  36.541  0.00  0.00     0.084 C 
ATOM      5  C5  <0> d          50.528  47.654  35.966  0.00  0.00     0.149 C 
ATOM      6  O1  <0> d          50.204  47.558  34.798  0.00  0.00    -0.293 OA
ATOM      7  C6  <0> d          50.606  46.501  36.759  0.00  0.00     0.058 C 
ATOM      8  C7  <0> d          50.882  46.558  38.085  0.00  0.00    -0.046 C 
ATOM      9  C8  <0> d          50.963  45.314  38.845  0.00  0.00     0.004 C 
ATOM     10  C9  <0> d          51.317  45.309  40.120  0.00  0.00    -0.021 C 
ATOM     11  C10 <0> d          51.712  46.544  40.876  0.00  0.00     0.018 C 
ATOM     12  C11 <0> d          52.016  47.725  39.971  0.00  0.00     0.006 C 
ATOM     13  C12 <0> d          52.214  49.038  40.711  0.00  0.00     0.007 C 
ATOM     14  C13 <0> d          51.242  49.301  41.862  0.00  0.00     0.013 C 
ATOM     15  C14 <0> d          51.172  48.089  42.761  0.00  0.00    -0.009 C 
ATOM     16  C15 <0> d          50.679  46.891  41.918  0.00  0.00     0.005 C 
ATOM     17  C16 <0> d          50.432  45.825  42.997  0.00  0.00     0.009 C 
ATOM     18  C17 <0> d          49.801  46.637  44.159  0.00  0.00     0.039 C 
ATOM     19  C18 <0> d          50.164  48.124  43.912  0.00  0.00     0.066 C 
ATOM     20  C22 <0> d          52.556  47.816  43.363  0.00  0.00     0.019 C 
ENDROOT
BRANCH  19  21
ATOM     21  C19 <0> d          48.916  48.920  43.550  0.00  0.00     0.049 C 
BRANCH  21  22
ATOM     22  C20 <0> d          48.654  49.977  44.626  0.00  0.00     0.116 C 
BRANCH  22  23
ATOM     23  C21 <0> d          48.943  51.345  44.066  0.00  0.00     0.172 C 
ATOM     24  O2  <0> d          49.658  52.107  44.673  0.00  0.00    -0.648 OA
ATOM     25  O4  <0> d          48.404  51.717  42.895  0.00  0.00    -0.648 OA
ENDBRANCH  22  23
ENDBRANCH  21  22
ENDBRANCH  19  21
BRANCH  19  26
ATOM     26  O3  <0> d          50.784  48.675  45.078  0.00  0.00    -0.389 OA
ATOM     27  H26 <0> d          50.164  48.908  45.782  0.00  0.00     0.210 HD
ENDBRANCH  19  26
TORSDOF 4
ENDMDL
MODEL 4
REMARK VINA RESULT:      -9.2      2.719      6.802
REMARK  4 active torsions:
REMARK  status: ('A' for Active; 'I' for Inactive)
REMARK    1  A    between atoms: C18_19  and  C19_20 
REMARK    2  A    between atoms: C18_19  and  O3_24 
REMARK    3  A    between atoms: C19_20  and  C20_21 
REMARK    4  A    between atoms: C20_21  and  C21_22 
ROOT
ATOM      1  C1  <0> d          50.163  50.352  37.940  0.00  0.00     0.021 C 
ATOM      2  C2  <0> d          51.146  49.236  37.591  0.00  0.00    -0.012 C 
ATOM      3  C3  <0> d          52.287  49.826  36.746  0.00  0.00     0.022 C 
ATOM      4  C4  <0> d          51.737  50.433  35.458  0.00  0.00     0.084 C 
ATOM      5  C5  <0> d          50.889  49.422  34.733  0.00  0.00     0.149 C 
ATOM      6  O1  <0> d          50.698  49.542  33.538  0.00  0.00    -0.293 OA
ATOM      7  C6  <0> d          50.323  48.338  35.418  0.00  0.00     0.058 C 
ATOM      8  C7  <0> d          50.433  48.199  36.762  0.00  0.00    -0.046 C 
ATOM      9  C8  <0> d          49.830  47.035  37.405  0.00  0.00     0.004 C 
ATOM     10  C9  <0> d          49.987  46.807  38.699  0.00  0.00    -0.021 C 
ATOM     11  C10 <0> d          50.823  47.670  39.598  0.00  0.00     0.018 C 
ATOM     12  C11 <0> d          51.750  48.600  38.837  0.00  0.00     0.006 C 
ATOM     13  C12 <0> d          52.453  49.626  39.712  0.00  0.00     0.007 C 
ATOM     14  C13 <0> d          51.590  50.271  40.797  0.00  0.00     0.013 C 
ATOM     15  C14 <0> d          50.853  49.203  41.569  0.00  0.00    -0.009 C 
ATOM     16  C15 <0> d          49.959  48.422  40.578  0.00  0.00     0.005 C 
ATOM     17  C16 <0> d          49.114  47.558  41.528  0.00  0.00     0.009 C 
ATOM     18  C17 <0> d          48.806  48.522  42.704  0.00  0.00     0.039 C 
ATOM     19  C18 <0> d          49.852  49.664  42.630  0.00  0.00     0.066 C 
ATOM     20  C22 <0> d          51.865  48.276  42.256  0.00  0.00     0.019 C 
ENDROOT
BRANCH  19  21
ATOM     21  C19 <0> d          49.177  50.974  42.242  0.00  0.00     0.049 C 
BRANCH  21  22
ATOM     22  C20 <0> d          48.120  51.335  43.289  0.00  0.00     0.116 C 
BRANCH  22  23
ATOM     23  C21 <0> d          48.577  52.540  44.069  0.00  0.00     0.172 C 
ATOM     24  O2  <0> d          49.678  52.557  44.564  0.00  0.00    -0.648 OA
ATOM     25  O4  <0> d          47.759  53.594  44.213  0.00  0.00    -0.648 OA
ENDBRANCH  22  23
ENDBRANCH  21  22
ENDBRANCH  19  21
BRANCH  19  26
ATOM     26  O3  <0> d          50.515  49.801  43.890  0.00  0.00    -0.389 OA
ATOM     27  H26 <0> d          50.120  50.463  44.474  0.00  0.00     0.210 HD
ENDBRANCH  19  26
TORSDOF 4
ENDMDL
MODEL 5
REMARK VINA RESULT:      -9.1      2.724      6.789
REMARK  4 active torsions:
REMARK  status: ('A' for Active; 'I' for Inactive)
REMARK    1  A    between atoms: C18_19  and  C19_20 
REMARK    2  A    between atoms: C18_19  and  O3_24 
REMARK    3  A    between atoms: C19_20  and  C20_21 
REMARK    4  A    between atoms: C20_21  and  C21_22 
ROOT
ATOM      1  C1  <0> d          51.552  51.784  40.542  0.00  0.00     0.021 C 
ATOM      2  C2  <0> d          52.215  51.258  39.269  0.00  0.00    -0.012 C 
ATOM      3  C3  <0> d          53.732  51.488  39.369  0.00  0.00     0.022 C 
ATOM      4  C4  <0> d          54.037  52.976  39.517  0.00  0.00     0.084 C 
ATOM      5  C5  <0> d          53.365  53.752  38.416  0.00  0.00     0.149 C 
ATOM      6  O1  <0> d          53.789  54.849  38.108  0.00  0.00    -0.293 OA
ATOM      7  C6  <0> d          52.262  53.221  37.735  0.00  0.00     0.058 C 
ATOM      8  C7  <0> d          51.697  52.040  38.089  0.00  0.00    -0.046 C 
ATOM      9  C8  <0> d          50.559  51.541  37.324  0.00  0.00     0.004 C 
ATOM     10  C9  <0> d          50.030  50.354  37.572  0.00  0.00    -0.021 C 
ATOM     11  C10 <0> d          50.569  49.406  38.603  0.00  0.00     0.018 C 
ATOM     12  C11 <0> d          51.966  49.768  39.073  0.00  0.00     0.006 C 
ATOM     13  C12 <0> d          52.452  48.952  40.261  0.00  0.00     0.007 C 
ATOM     14  C13 <0> d          51.415  48.698  41.356  0.00  0.00     0.013 C 
ATOM     15  C14 <0> d          50.133  48.191  40.740  0.00  0.00    -0.009 C 
ATOM     16  C15 <0> d          49.610  49.265  39.758  0.00  0.00     0.005 C 
ATOM     17  C16 <0> d          48.215  48.724  39.410  0.00  0.00     0.009 C 
ATOM     18  C17 <0> d          47.695  48.184  40.768  0.00  0.00     0.039 C 
ATOM     19  C18 <0> d          48.937  47.982  41.673  0.00  0.00     0.066 C 
ATOM     20  C22 <0> d          50.399  46.861  40.023  0.00  0.00     0.019 C 
ENDROOT
BRANCH  19  21
ATOM     21  C19 <0> d          48.927  48.991  42.816  0.00  0.00     0.049 C 
BRANCH  21  22
ATOM     22  C20 <0> d          48.805  48.250  44.150  0.00  0.00     0.116 C 
BRANCH  22  23
ATOM     23  C21 <0> d          50.048  48.482  44.969  0.00  0.00     0.172 C 
ATOM     24  O2  <0> d          50.706  49.480  44.799  0.00  0.00    -0.648 OA
ATOM     25  O4  <0> d          50.424  47.577  45.886  0.00  0.00    -0.648 OA
ENDBRANCH  22  23
ENDBRANCH  21  22
ENDBRANCH  19  21
BRANCH  19  26
ATOM     26  O3  <0> d          48.956  46.648  42.188  0.00  0.00    -0.389 OA
ATOM     27  H26 <0> d          49.582  46.513  42.912  0.00  0.00     0.210 HD
ENDBRANCH  19  26
TORSDOF 4
ENDMDL
MODEL 6
REMARK VINA RESULT:      -9.0      5.925      9.071
REMARK  4 active torsions:
REMARK  status: ('A' for Active; 'I' for Inactive)
REMARK    1  A    between atoms: C18_19  and  C19_20 
REMARK    2  A    between atoms: C18_19  and  O3_24 
REMARK    3  A    between atoms: C19_20  and  C20_21 
REMARK    4  A    between atoms: C20_21  and  C21_22 
ROOT
ATOM      1  C1  <0> d          44.519  49.998  45.023  0.00  0.00     0.021 C 
ATOM      2  C2  <0> d          44.235  51.357  44.385  0.00  0.00    -0.012 C 
ATOM      3  C3  <0> d          43.225  52.115  45.262  0.00  0.00     0.022 C 
ATOM      4  C4  <0> d          41.921  51.330  45.376  0.00  0.00     0.084 C 
ATOM      5  C5  <0> d          41.409  50.982  44.004  0.00  0.00     0.149 C 
ATOM      6  O1  <0> d          40.229  50.732  43.848  0.00  0.00    -0.293 OA
ATOM      7  C6  <0> d          42.274  50.950  42.902  0.00  0.00     0.058 C 
ATOM      8  C7  <0> d          43.610  51.140  43.030  0.00  0.00    -0.046 C 
ATOM      9  C8  <0> d          44.448  51.108  41.835  0.00  0.00     0.004 C 
ATOM     10  C9  <0> d          45.742  51.376  41.895  0.00  0.00    -0.021 C 
ATOM     11  C10 <0> d          46.447  51.782  43.157  0.00  0.00     0.018 C 
ATOM     12  C11 <0> d          45.496  52.203  44.262  0.00  0.00     0.006 C 
ATOM     13  C12 <0> d          46.167  52.417  45.610  0.00  0.00     0.007 C 
ATOM     14  C13 <0> d          47.230  51.384  45.990  0.00  0.00     0.013 C 
ATOM     15  C14 <0> d          48.193  51.195  44.843  0.00  0.00    -0.009 C 
ATOM     16  C15 <0> d          47.392  50.700  43.616  0.00  0.00     0.005 C 
ATOM     17  C16 <0> d          48.514  50.329  42.634  0.00  0.00     0.009 C 
ATOM     18  C17 <0> d          49.578  49.663  43.547  0.00  0.00     0.039 C 
ATOM     19  C18 <0> d          49.268  50.116  44.996  0.00  0.00     0.066 C 
ATOM     20  C22 <0> d          48.905  52.521  44.546  0.00  0.00     0.019 C 
ENDROOT
BRANCH  19  21
ATOM     21  C19 <0> d          48.773  48.936  45.824  0.00  0.00     0.049 C 
BRANCH  21  22
ATOM     22  C20 <0> d          49.481  47.658  45.368  0.00  0.00     0.116 C 
BRANCH  22  23
ATOM     23  C21 <0> d          49.583  46.699  46.525  0.00  0.00     0.172 C 
ATOM     24  O2  <0> d          48.789  46.762  47.433  0.00  0.00    -0.648 OA
ATOM     25  O4  <0> d          50.557  45.777  46.547  0.00  0.00    -0.648 OA
ENDBRANCH  22  23
ENDBRANCH  21  22
ENDBRANCH  19  21
BRANCH  19  26
ATOM     26  O3  <0> d          50.438  50.684  45.592  0.00  0.00    -0.389 OA
ATOM     27  H26 <0> d          51.066  50.030  45.928  0.00  0.00     0.210 HD
ENDBRANCH  19  26
TORSDOF 4
ENDMDL
MODEL 7
REMARK VINA RESULT:      -8.9      2.163      4.080
REMARK  4 active torsions:
REMARK  status: ('A' for Active; 'I' for Inactive)
REMARK    1  A    between atoms: C18_19  and  C19_20 
REMARK    2  A    between atoms: C18_19  and  O3_24 
REMARK    3  A    between atoms: C19_20  and  C20_21 
REMARK    4  A    between atoms: C20_21  and  C21_22 
ROOT
ATOM      1  C1  <0> d          50.073  50.059  41.144  0.00  0.00     0.021 C 
ATOM      2  C2  <0> d          49.849  48.741  41.885  0.00  0.00    -0.012 C 
ATOM      3  C3  <0> d          48.652  48.905  42.836  0.00  0.00     0.022 C 
ATOM      4  C4  <0> d          48.924  50.013  43.850  0.00  0.00     0.084 C 
ATOM      5  C5  <0> d          50.236  49.764  44.545  0.00  0.00     0.149 C 
ATOM      6  O1  <0> d          50.446  50.268  45.632  0.00  0.00    -0.293 OA
ATOM      7  C6  <0> d          51.216  48.953  43.958  0.00  0.00     0.058 C 
ATOM      8  C7  <0> d          51.070  48.433  42.715  0.00  0.00    -0.046 C 
ATOM      9  C8  <0> d          52.126  47.583  42.174  0.00  0.00     0.004 C 
ATOM     10  C9  <0> d          51.991  46.980  41.004  0.00  0.00    -0.021 C 
ATOM     11  C10 <0> d          50.750  47.065  40.165  0.00  0.00     0.018 C 
ATOM     12  C11 <0> d          49.550  47.595  40.928  0.00  0.00     0.006 C 
ATOM     13  C12 <0> d          48.339  47.887  40.056  0.00  0.00     0.007 C 
ATOM     14  C13 <0> d          48.638  48.560  38.715  0.00  0.00     0.013 C 
ATOM     15  C14 <0> d          49.747  47.820  38.006  0.00  0.00    -0.009 C 
ATOM     16  C15 <0> d          51.004  47.856  38.906  0.00  0.00     0.005 C 
ATOM     17  C16 <0> d          52.082  47.293  37.967  0.00  0.00     0.009 C 
ATOM     18  C17 <0> d          51.735  47.942  36.600  0.00  0.00     0.039 C 
ATOM     19  C18 <0> d          50.261  48.413  36.692  0.00  0.00     0.066 C 
ATOM     20  C22 <0> d          49.304  46.379  37.724  0.00  0.00     0.019 C 
ENDROOT
BRANCH  19  21
ATOM     21  C19 <0> d          50.192  49.935  36.691  0.00  0.00     0.049 C 
BRANCH  21  22
ATOM     22  C20 <0> d          51.500  50.506  36.138  0.00  0.00     0.116 C 
BRANCH  22  23
ATOM     23  C21 <0> d          51.290  51.942  35.733  0.00  0.00     0.172 C 
ATOM     24  O2  <0> d          50.760  52.200  34.678  0.00  0.00    -0.648 OA
ATOM     25  O4  <0> d          51.693  52.933  36.543  0.00  0.00    -0.648 OA
ENDBRANCH  22  23
ENDBRANCH  21  22
ENDBRANCH  19  21
BRANCH  19  26
ATOM     26  O3  <0> d          49.509  47.880  35.598  0.00  0.00    -0.389 OA
ATOM     27  H26 <0> d          50.028  47.332  34.993  0.00  0.00     0.210 HD
ENDBRANCH  19  26
TORSDOF 4
ENDMDL
MODEL 8
REMARK VINA RESULT:      -8.7      1.855      3.983
REMARK  4 active torsions:
REMARK  status: ('A' for Active; 'I' for Inactive)
REMARK    1  A    between atoms: C18_19  and  C19_20 
REMARK    2  A    between atoms: C18_19  and  O3_24 
REMARK    3  A    between atoms: C19_20  and  C20_21 
REMARK    4  A    between atoms: C20_21  and  C21_22 
ROOT
ATOM      1  C1  <0> d          49.328  50.148  39.558  0.00  0.00     0.021 C 
ATOM      2  C2  <0> d          49.349  48.670  39.946  0.00  0.00    -0.012 C 
ATOM      3  C3  <0> d          48.001  48.308  40.590  0.00  0.00     0.022 C 
ATOM      4  C4  <0> d          47.763  49.152  41.839  0.00  0.00     0.084 C 
ATOM      5  C5  <0> d          48.942  49.042  42.768  0.00  0.00     0.149 C 
ATOM      6  O1  <0> d          48.801  49.285  43.951  0.00  0.00    -0.293 OA
ATOM      7  C6  <0> d          50.200  48.653  42.288  0.00  0.00     0.058 C 
ATOM      8  C7  <0> d          50.434  48.448  40.968  0.00  0.00    -0.046 C 
ATOM      9  C8  <0> d          51.766  48.030  40.542  0.00  0.00     0.004 C 
ATOM     10  C9  <0> d          52.021  47.730  39.279  0.00  0.00    -0.021 C 
ATOM     11  C10 <0> d          50.980  47.740  38.198  0.00  0.00     0.018 C 
ATOM     12  C11 <0> d          49.562  47.768  38.737  0.00  0.00     0.006 C 
ATOM     13  C12 <0> d          48.498  47.988  37.672  0.00  0.00     0.007 C 
ATOM     14  C13 <0> d          48.837  49.031  36.606  0.00  0.00     0.013 C 
ATOM     15  C14 <0> d          50.219  48.771  36.055  0.00  0.00    -0.009 C 
ATOM     16  C15 <0> d          51.229  48.862  37.221  0.00  0.00     0.005 C 
ATOM     17  C16 <0> d          52.574  48.820  36.480  0.00  0.00     0.009 C 
ATOM     18  C17 <0> d          52.316  49.698  35.227  0.00  0.00     0.039 C 
ATOM     19  C18 <0> d          50.778  49.780  35.049  0.00  0.00     0.066 C 
ATOM     20  C22 <0> d          50.255  47.387  35.393  0.00  0.00     0.019 C 
ENDROOT
BRANCH  19  21
ATOM     21  C19 <0> d          50.288  51.195  35.333  0.00  0.00     0.049 C 
BRANCH  21  22
ATOM     22  C20 <0> d          51.489  52.121  35.539  0.00  0.00     0.116 C 
BRANCH  22  23
ATOM     23  C21 <0> d          51.324  52.879  36.830  0.00  0.00     0.172 C 
ATOM     24  O2  <0> d          52.145  52.762  37.708  0.00  0.00    -0.648 OA
ATOM     25  O4  <0> d          50.264  53.683  37.004  0.00  0.00    -0.648 OA
ENDBRANCH  22  23
ENDBRANCH  21  22
ENDBRANCH  19  21
BRANCH  19  26
ATOM     26  O3  <0> d          50.418  49.387  33.722  0.00  0.00    -0.389 OA
ATOM     27  H26 <0> d          50.584  50.064  33.051  0.00  0.00     0.210 HD
ENDBRANCH  19  26
TORSDOF 4
ENDMDL
MODEL 9
REMARK VINA RESULT:      -8.7      2.670      7.690
REMARK  4 active torsions:
REMARK  status: ('A' for Active; 'I' for Inactive)
REMARK    1  A    between atoms: C18_19  and  C19_20 
REMARK    2  A    between atoms: C18_19  and  O3_24 
REMARK    3  A    between atoms: C19_20  and  C20_21 
REMARK    4  A    between atoms: C20_21  and  C21_22 
ROOT
ATOM      1  C1  <0> d          48.778  47.714  40.722  0.00  0.00     0.021 C 
ATOM      2  C2  <0> d          49.823  48.774  40.377  0.00  0.00    -0.012 C 
ATOM      3  C3  <0> d          49.161  49.859  39.513  0.00  0.00     0.022 C 
ATOM      4  C4  <0> d          48.613  49.255  38.223  0.00  0.00     0.084 C 
ATOM      5  C5  <0> d          49.693  48.478  37.519  0.00  0.00     0.149 C 
ATOM      6  O1  <0> d          49.602  48.268  36.325  0.00  0.00    -0.293 OA
ATOM      7  C6  <0> d          50.807  48.000  38.222  0.00  0.00     0.058 C 
ATOM      8  C7  <0> d          50.921  48.132  39.566  0.00  0.00    -0.046 C 
ATOM      9  C8  <0> d          52.117  47.623  40.230  0.00  0.00     0.004 C 
ATOM     10  C9  <0> d          52.317  47.808  41.524  0.00  0.00    -0.021 C 
ATOM     11  C10 <0> d          51.383  48.586  42.405  0.00  0.00     0.018 C 
ATOM     12  C11 <0> d          50.396  49.434  41.624  0.00  0.00     0.006 C 
ATOM     13  C12 <0> d          49.309  50.067  42.479  0.00  0.00     0.007 C 
ATOM     14  C13 <0> d          48.717  49.168  43.566  0.00  0.00     0.013 C 
ATOM     15  C14 <0> d          49.827  48.519  44.357  0.00  0.00    -0.009 C 
ATOM     16  C15 <0> d          50.685  47.677  43.385  0.00  0.00     0.005 C 
ATOM     17  C16 <0> d          51.597  46.907  44.353  0.00  0.00     0.009 C 
ATOM     18  C17 <0> d          50.644  46.539  45.521  0.00  0.00     0.039 C 
ATOM     19  C18 <0> d          49.428  47.496  45.423  0.00  0.00     0.066 C 
ATOM     20  C22 <0> d          50.667  49.603  45.045  0.00  0.00     0.019 C 
ENDROOT
BRANCH  19  21
ATOM     21  C19 <0> d          48.177  46.722  45.025  0.00  0.00     0.049 C 
BRANCH  21  22
ATOM     22  C20 <0> d          48.142  45.388  45.775  0.00  0.00     0.116 C 
BRANCH  22  23
ATOM     23  C21 <0> d          47.995  44.260  44.786  0.00  0.00     0.172 C 
ATOM     24  O2  <0> d          47.875  43.125  45.180  0.00  0.00    -0.648 OA
ATOM     25  O4  <0> d          47.998  44.518  43.470  0.00  0.00    -0.648 OA
ENDBRANCH  22  23
ENDBRANCH  21  22
ENDBRANCH  19  21
BRANCH  19  26
ATOM     26  O3  <0> d          49.226  48.159  46.674  0.00  0.00    -0.389 OA
ATOM     27  H26 <0> d          48.855  49.048  46.594  0.00  0.00     0.210 HD
ENDBRANCH  19  26
TORSDOF 4
ENDMDL
MODEL 10
REMARK VINA RESULT:      -8.6     11.629     13.873
REMARK  4 active torsions:
REMARK  status: ('A' for Active; 'I' for Inactive)
REMARK    1  A    between atoms: C18_19  and  C19_20 
REMARK    2  A    between atoms: C18_19  and  O3_24 
REMARK    3  A    between atoms: C19_20  and  C20_21 
REMARK    4  A    between atoms: C20_21  and  C21_22 
ROOT
ATOM      1  C1  <0> d          38.203  53.440  45.556  0.00  0.00     0.021 C 
ATOM      2  C2  <0> d          39.119  52.969  46.684  0.00  0.00    -0.012 C 
ATOM      3  C3  <0> d          38.258  52.617  47.908  0.00  0.00     0.022 C 
ATOM      4  C4  <0> d          37.472  53.839  48.376  0.00  0.00     0.084 C 
ATOM      5  C5  <0> d          38.406  55.001  48.590  0.00  0.00     0.149 C 
ATOM      6  O1  <0> d          38.075  55.911  49.325  0.00  0.00    -0.293 OA
ATOM      7  C6  <0> d          39.656  55.042  47.958  0.00  0.00     0.058 C 
ATOM      8  C7  <0> d          40.043  54.097  47.067  0.00  0.00    -0.046 C 
ATOM      9  C8  <0> d          41.367  54.196  46.460  0.00  0.00     0.004 C 
ATOM     10  C9  <0> d          41.826  53.252  45.654  0.00  0.00    -0.021 C 
ATOM     11  C10 <0> d          41.073  51.994  45.336  0.00  0.00     0.018 C 
ATOM     12  C11 <0> d          39.919  51.734  46.288  0.00  0.00     0.006 C 
ATOM     13  C12 <0> d          39.015  50.585  45.867  0.00  0.00     0.007 C 
ATOM     14  C13 <0> d          38.690  50.513  44.374  0.00  0.00     0.013 C 
ATOM     15  C14 <0> d          39.961  50.627  43.567  0.00  0.00    -0.009 C 
ATOM     16  C15 <0> d          40.623  51.985  43.897  0.00  0.00     0.005 C 
ATOM     17  C16 <0> d          41.740  52.057  42.845  0.00  0.00     0.009 C 
ATOM     18  C17 <0> d          41.063  51.487  41.570  0.00  0.00     0.039 C 
ATOM     19  C18 <0> d          39.825  50.684  42.044  0.00  0.00     0.066 C 
ATOM     20  C22 <0> d          40.892  49.456  43.907  0.00  0.00     0.019 C 
ENDROOT
BRANCH  19  21
ATOM     21  C19 <0> d          38.543  51.388  41.615  0.00  0.00     0.049 C 
BRANCH  21  22
ATOM     22  C20 <0> d          37.639  50.398  40.876  0.00  0.00     0.116 C 
BRANCH  22  23
ATOM     23  C21 <0> d          36.301  50.329  41.565  0.00  0.00     0.172 C 
ATOM     24  O2  <0> d          35.518  51.243  41.455  0.00  0.00    -0.648 OA
ATOM     25  O4  <0> d          35.980  49.254  42.300  0.00  0.00    -0.648 OA
ENDBRANCH  22  23
ENDBRANCH  21  22
ENDBRANCH  19  21
BRANCH  19  26
ATOM     26  O3  <0> d          39.868  49.359  41.507  0.00  0.00    -0.389 OA
ATOM     27  H26 <0> d          39.174  49.173  40.859  0.00  0.00     0.210 HD
ENDBRANCH  19  26
TORSDOF 4
ENDMDL
MODEL 1
REMARK VINA RESULT:      -9.4      0.000      0.000
REMARK  4 active torsions:
REMARK  status: ('A' for Active; 'I' for Inactive)
REMARK    1  A    between atoms: C18_19  and  C19_20 
REMARK    2  A    between atoms: C18_19  and  O3_24 
REMARK    3  A    between atoms: C19_20  and  C20_21 
REMARK    4  A    between atoms: C20_21  and  C21_22 
ROOT
ATOM      1  C1  <0> d          50.527  48.187  39.636  0.00  0.00     0.021 C 
ATOM      2  C2  <0> d          51.192  48.843  40.845  0.00  0.00    -0.012 C 
ATOM      3  C3  <0> d          52.377  47.972  41.294  0.00  0.00     0.022 C 
ATOM      4  C4  <0> d          51.895  46.575  41.681  0.00  0.00     0.084 C 
ATOM      5  C5  <0> d          50.783  46.676  42.691  0.00  0.00     0.149 C 
ATOM      6  O1  <0> d          50.543  45.730  43.416  0.00  0.00    -0.293 OA
ATOM      7  C6  <0> d          50.027  47.849  42.812  0.00  0.00     0.058 C 
ATOM      8  C7  <0> d          50.197  48.904  41.977  0.00  0.00    -0.046 C 
ATOM      9  C8  <0> d          49.385  50.101  42.172  0.00  0.00     0.004 C 
ATOM     10  C9  <0> d          49.574  51.188  41.443  0.00  0.00    -0.021 C 
ATOM     11  C10 <0> d          50.652  51.313  40.405  0.00  0.00     0.018 C 
ATOM     12  C11 <0> d          51.715  50.236  40.519  0.00  0.00     0.006 C 
ATOM     13  C12 <0> d          52.701  50.213  39.362  0.00  0.00     0.007 C 
ATOM     14  C13 <0> d          52.094  50.419  37.973  0.00  0.00     0.013 C 
ATOM     15  C14 <0> d          51.182  51.623  37.986  0.00  0.00    -0.009 C 
ATOM     16  C15 <0> d          50.061  51.370  39.020  0.00  0.00     0.005 C 
ATOM     17  C16 <0> d          49.106  52.542  38.745  0.00  0.00     0.009 C 
ATOM     18  C17 <0> d          49.118  52.654  37.198  0.00  0.00     0.039 C 
ATOM     19  C18 <0> d          50.395  51.925  36.708  0.00  0.00     0.066 C 
ATOM     20  C22 <0> d          51.992  52.877  38.339  0.00  0.00     0.019 C 
ENDROOT
BRANCH  19  21
ATOM     21  C19 <0> d          50.022  50.651  35.957  0.00  0.00     0.049 C 
BRANCH  21  22
ATOM     22  C20 <0> d          50.749  50.620  34.612  0.00  0.00     0.116 C 
BRANCH  22  23
ATOM     23  C21 <0> d          51.634  49.401  34.547  0.00  0.00     0.172 C 
ATOM     24  O2  <0> d          51.155  48.320  34.299  0.00  0.00    -0.648 OA
ATOM     25  O4  <0> d          52.952  49.518  34.765  0.00  0.00    -0.648 OA
ENDBRANCH  22  23
ENDBRANCH  21  22
ENDBRANCH  19  21
BRANCH  19  26
ATOM     26  O3  <0> d          51.160  52.792  35.865  0.00  0.00    -0.389 OA
ATOM     27  H26 <0> d          51.853  52.341  35.363  0.00  0.00     0.210 HD
ENDBRANCH  19  26
TORSDOF 4
ENDMDL
MODEL 2
REMARK VINA RESULT:      -9.4      2.616      7.014
REMARK  4 active torsions:
REMARK  status: ('A' for Active; 'I' for Inactive)
REMARK    1  A    between atoms: C18_19  and  C19_20 
REMARK    2  A    between atoms: C18_19  and  O3_24 
REMARK    3  A    between atoms: C19_20  and  C20_21 
REMARK    4  A    between atoms: C20_21  and  C21_22 
ROOT
ATOM      1  C1  <0> d          49.719  48.429  39.197  0.00  0.00     0.021 C 
ATOM      2  C2  <0> d          51.079  47.876  38.773  0.00  0.00    -0.012 C 
ATOM      3  C3  <0> d          51.719  48.847  37.767  0.00  0.00     0.022 C 
ATOM      4  C4  <0> d          50.831  48.997  36.534  0.00  0.00     0.084 C 
ATOM      5  C5  <0> d          50.505  47.642  35.966  0.00  0.00     0.149 C 
ATOM      6  O1  <0> d          50.173  47.543  34.800  0.00  0.00    -0.293 OA
ATOM      7  C6  <0> d          50.588  46.491  36.761  0.00  0.00     0.058 C 
ATOM      8  C7  <0> d          50.874  46.550  38.084  0.00  0.00    -0.046 C 
ATOM      9  C8  <0> d          50.960  45.309  38.847  0.00  0.00     0.004 C 
ATOM     10  C9  <0> d          51.324  45.306  40.118  0.00  0.00    -0.021 C 
ATOM     11  C10 <0> d          51.726  46.543  40.869  0.00  0.00     0.018 C 
ATOM     12  C11 <0> d          52.024  47.721  39.960  0.00  0.00     0.006 C 
ATOM     13  C12 <0> d          52.230  49.036  40.694  0.00  0.00     0.007 C 
ATOM     14  C13 <0> d          51.267  49.303  41.852  0.00  0.00     0.013 C 
ATOM     15  C14 <0> d          51.202  48.094  42.754  0.00  0.00    -0.009 C 
ATOM     16  C15 <0> d          50.702  46.892  41.918  0.00  0.00     0.005 C 
ATOM     17  C16 <0> d          50.461  45.831  43.002  0.00  0.00     0.009 C 
ATOM     18  C17 <0> d          49.840  46.646  44.166  0.00  0.00     0.039 C 
ATOM     19  C18 <0> d          50.203  48.132  43.913  0.00  0.00     0.066 C 
ATOM     20  C22 <0> d          52.590  47.820  43.346  0.00  0.00     0.019 C 
ENDROOT
BRANCH  19  21
ATOM     21  C19 <0> d          48.952  48.929  43.559  0.00  0.00     0.049 C 
BRANCH  21  22
ATOM     22  C20 <0> d          48.711  50.000  44.623  0.00  0.00     0.116 C 
BRANCH  22  23
ATOM     23  C21 <0> d          48.971  51.363  44.033  0.00  0.00     0.172 C 
ATOM     24  O2  <0> d          49.658  52.158  44.630  0.00  0.00    -0.648 OA
ATOM     25  O4  <0> d          48.439  51.692  42.846  0.00  0.00    -0.648 OA
ENDBRANCH  22  23
ENDBRANCH  21  22
ENDBRANCH  19  21
BRANCH  19  26
ATOM     26  O3  <0> d          50.832  48.685  45.073  0.00  0.00    -0.389 OA
ATOM     27  H26 <0> d          51.356  48.048  45.578  0.00  0.00     0.210 HD
ENDBRANCH  19  26
TORSDOF 4
ENDMDL
MODEL 3
REMARK VINA RESULT:      -9.4      1.859      3.885
REMARK  4 active torsions:
REMARK  status: ('A' for Active; 'I' for Inactive)
REMARK    1  A    between atoms: C18_19  and  C19_20 
REMARK    2  A    between atoms: C18_19  and  O3_24 
REMARK    3  A    between atoms: C19_20  and  C20_21 
REMARK    4  A    between atoms: C20_21  and  C21_22 
ROOT
ATOM      1  C1  <0> d          51.940  48.669  41.018  0.00  0.00     0.021 C 
ATOM      2  C2  <0> d          50.808  47.671  41.258  0.00  0.00    -0.012 C 
ATOM      3  C3  <0> d          50.122  48.010  42.591  0.00  0.00     0.022 C 
ATOM      4  C4  <0> d          51.121  47.924  43.742  0.00  0.00     0.084 C 
ATOM      5  C5  <0> d          51.812  46.587  43.724  0.00  0.00     0.149 C 
ATOM      6  O1  <0> d          52.320  46.160  44.743  0.00  0.00    -0.293 OA
ATOM      7  C6  <0> d          51.871  45.824  42.550  0.00  0.00     0.058 C 
ATOM      8  C7  <0> d          51.394  46.285  41.368  0.00  0.00    -0.046 C 
ATOM      9  C8  <0> d          51.474  45.430  40.189  0.00  0.00     0.004 C 
ATOM     10  C9  <0> d          50.943  45.796  39.035  0.00  0.00    -0.021 C 
ATOM     11  C10 <0> d          50.178  47.075  38.842  0.00  0.00     0.018 C 
ATOM     12  C11 <0> d          49.762  47.722  40.150  0.00  0.00     0.006 C 
ATOM     13  C12 <0> d          49.172  49.114  39.994  0.00  0.00     0.007 C 
ATOM     14  C13 <0> d          49.879  50.021  38.985  0.00  0.00     0.013 C 
ATOM     15  C14 <0> d          50.077  49.283  37.684  0.00  0.00    -0.009 C 
ATOM     16  C15 <0> d          50.941  48.031  37.963  0.00  0.00     0.005 C 
ATOM     17  C16 <0> d          51.252  47.537  36.543  0.00  0.00     0.009 C 
ATOM     18  C17 <0> d          51.509  48.850  35.758  0.00  0.00     0.039 C 
ATOM     19  C18 <0> d          50.869  49.995  36.583  0.00  0.00     0.066 C 
ATOM     20  C22 <0> d          48.713  48.898  37.098  0.00  0.00     0.019 C 
ENDROOT
BRANCH  19  21
ATOM     21  C19 <0> d          51.953  50.900  37.159  0.00  0.00     0.049 C 
BRANCH  21  22
ATOM     22  C20 <0> d          51.602  52.361  36.874  0.00  0.00     0.116 C 
BRANCH  22  23
ATOM     23  C21 <0> d          52.410  53.258  37.777  0.00  0.00     0.172 C 
ATOM     24  O2  <0> d          52.706  54.372  37.415  0.00  0.00    -0.648 OA
ATOM     25  O4  <0> d          52.800  52.818  38.983  0.00  0.00    -0.648 OA
ENDBRANCH  22  23
ENDBRANCH  21  22
ENDBRANCH  19  21
BRANCH  19  26
ATOM     26  O3  <0> d          49.976  50.751  35.760  0.00  0.00    -0.389 OA
ATOM     27  H26 <0> d          50.171  51.698  35.735  0.00  0.00     0.210 HD
ENDBRANCH  19  26
TORSDOF 4
ENDMDL
MODEL 4
REMARK VINA RESULT:      -9.0      5.910      9.069
REMARK  4 active torsions:
REMARK  status: ('A' for Active; 'I' for Inactive)
REMARK    1  A    between atoms: C18_19  and  C19_20 
REMARK    2  A    between atoms: C18_19  and  O3_24 
REMARK    3  A    between atoms: C19_20  and  C20_21 
REMARK    4  A    between atoms: C20_21  and  C21_22 
ROOT
ATOM      1  C1  <0> d          44.538  49.992  45.010  0.00  0.00     0.021 C 
ATOM      2  C2  <0> d          44.252  51.350  44.371  0.00  0.00    -0.012 C 
ATOM      3  C3  <0> d          43.241  52.107  45.246  0.00  0.00     0.022 C 
ATOM      4  C4  <0> d          41.937  51.320  45.359  0.00  0.00     0.084 C 
ATOM      5  C5  <0> d          41.428  50.970  43.986  0.00  0.00     0.149 C 
ATOM      6  O1  <0> d          40.248  50.718  43.829  0.00  0.00    -0.293 OA
ATOM      7  C6  <0> d          42.294  50.939  42.885  0.00  0.00     0.058 C 
ATOM      8  C7  <0> d          43.630  51.130  43.014  0.00  0.00    -0.046 C 
ATOM      9  C8  <0> d          44.469  51.100  41.822  0.00  0.00     0.004 C 
ATOM     10  C9  <0> d          45.762  51.369  41.882  0.00  0.00    -0.021 C 
ATOM     11  C10 <0> d          46.466  51.776  43.145  0.00  0.00     0.018 C 
ATOM     12  C11 <0> d          45.513  52.197  44.248  0.00  0.00     0.006 C 
ATOM     13  C12 <0> d          46.181  52.413  45.596  0.00  0.00     0.007 C 
ATOM     14  C13 <0> d          47.246  51.383  45.978  0.00  0.00     0.013 C 
ATOM     15  C14 <0> d          48.210  51.194  44.832  0.00  0.00    -0.009 C 
ATOM     16  C15 <0> d          47.412  50.697  43.604  0.00  0.00     0.005 C 
ATOM     17  C16 <0> d          48.536  50.326  42.625  0.00  0.00     0.009 C 
ATOM     18  C17 <0> d          49.599  49.663  43.539  0.00  0.00     0.039 C 
ATOM     19  C18 <0> d          49.287  50.116  44.988  0.00  0.00     0.066 C 
ATOM     20  C22 <0> d          48.921  52.520  44.534  0.00  0.00     0.019 C 
ENDROOT
BRANCH  19  21
ATOM     21  C19 <0> d          48.792  48.935  45.816  0.00  0.00     0.049 C 
BRANCH  21  22
ATOM     22  C20 <0> d          49.535  47.668  45.391  0.00  0.00     0.116 C 
BRANCH  22  23
ATOM     23  C21 <0> d          49.583  46.701  46.547  0.00  0.00     0.172 C 
ATOM     24  O2  <0> d          48.779  46.793  47.444  0.00  0.00    -0.648 OA
ATOM     25  O4  <0> d          50.519  45.741  46.580  0.00  0.00    -0.648 OA
ENDBRANCH  22  23
ENDBRANCH  21  22
ENDBRANCH  19  21
BRANCH  19  26
ATOM     26  O3  <0> d          50.456  50.687  45.585  0.00  0.00    -0.389 OA
ATOM     27  H26 <0> d          50.270  51.402  46.207  0.00  0.00     0.210 HD
ENDBRANCH  19  26
TORSDOF 4
ENDMDL
MODEL 5
REMARK VINA RESULT:      -8.8      3.100      8.201
REMARK  4 active torsions:
REMARK  status: ('A' for Active; 'I' for Inactive)
REMARK    1  A    between atoms: C18_19  and  C19_20 
REMARK    2  A    between atoms: C18_19  and  O3_24 
REMARK    3  A    between atoms: C19_20  and  C20_21 
REMARK    4  A    between atoms: C20_21  and  C21_22 
ROOT
ATOM      1  C1  <0> d          49.226  47.307  41.469  0.00  0.00     0.021 C 
ATOM      2  C2  <0> d          50.261  48.429  41.528  0.00  0.00    -0.012 C 
ATOM      3  C3  <0> d          49.919  49.477  40.456  0.00  0.00     0.022 C 
ATOM      4  C4  <0> d          49.941  48.845  39.066  0.00  0.00     0.084 C 
ATOM      5  C5  <0> d          51.250  48.137  38.844  0.00  0.00     0.149 C 
ATOM      6  O1  <0> d          51.634  47.927  37.709  0.00  0.00    -0.293 OA
ATOM      7  C6  <0> d          52.036  47.723  39.927  0.00  0.00     0.058 C 
ATOM      8  C7  <0> d          51.621  47.857  41.210  0.00  0.00    -0.046 C 
ATOM      9  C8  <0> d          52.499  47.418  42.289  0.00  0.00     0.004 C 
ATOM     10  C9  <0> d          52.180  47.608  43.558  0.00  0.00    -0.021 C 
ATOM     11  C10 <0> d          50.937  48.326  44.002  0.00  0.00     0.018 C 
ATOM     12  C11 <0> d          50.277  49.117  42.888  0.00  0.00     0.006 C 
ATOM     13  C12 <0> d          48.913  49.681  43.251  0.00  0.00     0.007 C 
ATOM     14  C13 <0> d          48.002  48.745  44.046  0.00  0.00     0.013 C 
ATOM     15  C14 <0> d          48.761  48.160  45.213  0.00  0.00    -0.009 C 
ATOM     16  C15 <0> d          49.971  47.374  44.659  0.00  0.00     0.005 C 
ATOM     17  C16 <0> d          50.485  46.655  45.915  0.00  0.00     0.009 C 
ATOM     18  C17 <0> d          49.182  46.227  46.638  0.00  0.00     0.039 C 
ATOM     19  C18 <0> d          48.044  47.110  46.066  0.00  0.00     0.066 C 
ATOM     20  C22 <0> d          49.212  49.288  46.149  0.00  0.00     0.019 C 
ENDROOT
BRANCH  19  21
ATOM     21  C19 <0> d          47.084  46.264  45.236  0.00  0.00     0.049 C 
BRANCH  21  22
ATOM     22  C20 <0> d          46.732  44.990  46.005  0.00  0.00     0.116 C 
BRANCH  22  23
ATOM     23  C21 <0> d          47.100  43.785  45.177  0.00  0.00     0.172 C 
ATOM     24  O2  <0> d          48.048  43.104  45.490  0.00  0.00    -0.648 OA
ATOM     25  O4  <0> d          46.376  43.470  44.092  0.00  0.00    -0.648 OA
ENDBRANCH  22  23
ENDBRANCH  21  22
ENDBRANCH  19  21
BRANCH  19  26
ATOM     26  O3  <0> d          47.341  47.755  47.133  0.00  0.00    -0.389 OA
ATOM     27  H26 <0> d          47.105  47.164  47.862  0.00  0.00     0.210 HD
ENDBRANCH  19  26
TORSDOF 4
ENDMDL
MODEL 6
REMARK VINA RESULT:      -8.7      2.155      4.126
REMARK  4 active torsions:
REMARK  status: ('A' for Active; 'I' for Inactive)
REMARK    1  A    between atoms: C18_19  and  C19_20 
REMARK    2  A    between atoms: C18_19  and  O3_24 
REMARK    3  A    between atoms: C19_20  and  C20_21 
REMARK    4  A    between atoms: C20_21  and  C21_22 
ROOT
ATOM      1  C1  <0> d          49.996  50.194  41.508  0.00  0.00     0.021 C 
ATOM      2  C2  <0> d          49.599  48.893  42.205  0.00  0.00    -0.012 C 
ATOM      3  C3  <0> d          48.355  49.153  43.069  0.00  0.00     0.022 C 
ATOM      4  C4  <0> d          48.650  50.218  44.123  0.00  0.00     0.084 C 
ATOM      5  C5  <0> d          49.880  49.841  44.905  0.00  0.00     0.149 C 
ATOM      6  O1  <0> d          50.053  50.309  46.014  0.00  0.00    -0.293 OA
ATOM      7  C6  <0> d          50.823  48.952  44.375  0.00  0.00     0.058 C 
ATOM      8  C7  <0> d          50.723  48.464  43.114  0.00  0.00    -0.046 C 
ATOM      9  C8  <0> d          51.734  47.528  42.633  0.00  0.00     0.004 C 
ATOM     10  C9  <0> d          51.634  46.955  41.446  0.00  0.00    -0.021 C 
ATOM     11  C10 <0> d          50.470  47.164  40.520  0.00  0.00     0.018 C 
ATOM     12  C11 <0> d          49.270  47.791  41.205  0.00  0.00     0.006 C 
ATOM     13  C12 <0> d          48.158  48.204  40.254  0.00  0.00     0.007 C 
ATOM     14  C13 <0> d          48.615  48.865  38.952  0.00  0.00     0.013 C 
ATOM     15  C14 <0> d          49.702  48.036  38.311  0.00  0.00    -0.009 C 
ATOM     16  C15 <0> d          50.887  47.944  39.300  0.00  0.00     0.005 C 
ATOM     17  C16 <0> d          51.976  47.299  38.430  0.00  0.00     0.009 C 
ATOM     18  C17 <0> d          51.792  47.994  37.056  0.00  0.00     0.039 C 
ATOM     19  C18 <0> d          50.363  48.596  37.049  0.00  0.00     0.066 C 
ATOM     20  C22 <0> d          49.153  46.645  37.969  0.00  0.00     0.019 C 
ENDROOT
BRANCH  19  21
ATOM     21  C19 <0> d          50.432  50.119  37.073  0.00  0.00     0.049 C 
BRANCH  21  22
ATOM     22  C20 <0> d          51.515  50.597  36.104  0.00  0.00     0.116 C 
BRANCH  22  23
ATOM     23  C21 <0> d          51.182  51.985  35.621  0.00  0.00     0.172 C 
ATOM     24  O2  <0> d          51.397  52.939  36.330  0.00  0.00    -0.648 OA
ATOM     25  O4  <0> d          50.645  52.160  34.404  0.00  0.00    -0.648 OA
ENDBRANCH  22  23
ENDBRANCH  21  22
ENDBRANCH  19  21
BRANCH  19  26
ATOM     26  O3  <0> d          49.649  48.149  35.892  0.00  0.00    -0.389 OA
ATOM     27  H26 <0> d          48.957  47.502  36.084  0.00  0.00     0.210 HD
ENDBRANCH  19  26
TORSDOF 4
ENDMDL
MODEL 7
REMARK VINA RESULT:      -8.7      1.871      2.303
REMARK  4 active torsions:
REMARK  status: ('A' for Active; 'I' for Inactive)
REMARK    1  A    between atoms: C18_19  and  C19_20 
REMARK    2  A    between atoms: C18_19  and  O3_24 
REMARK    3  A    between atoms: C19_20  and  C20_21 
REMARK    4  A    between atoms: C20_21  and  C21_22 
ROOT
ATOM      1  C1  <0> d          51.215  47.229  40.526  0.00  0.00     0.021 C 
ATOM      2  C2  <0> d          50.887  48.296  41.570  0.00  0.00    -0.012 C 
ATOM      3  C3  <0> d          51.918  48.211  42.707  0.00  0.00     0.022 C 
ATOM      4  C4  <0> d          51.875  46.834  43.365  0.00  0.00     0.084 C 
ATOM      5  C5  <0> d          50.466  46.507  43.781  0.00  0.00     0.149 C 
ATOM      6  O1  <0> d          50.273  45.683  44.655  0.00  0.00    -0.293 OA
ATOM      7  C6  <0> d          49.373  47.146  43.181  0.00  0.00     0.058 C 
ATOM      8  C7  <0> d          49.523  48.011  42.148  0.00  0.00    -0.046 C 
ATOM      9  C8  <0> d          48.341  48.652  41.582  0.00  0.00     0.004 C 
ATOM     10  C9  <0> d          48.442  49.570  40.636  0.00  0.00    -0.021 C 
ATOM     11  C10 <0> d          49.753  50.068  40.100  0.00  0.00     0.018 C 
ATOM     12  C11 <0> d          50.934  49.700  40.980  0.00  0.00     0.006 C 
ATOM     13  C12 <0> d          52.288  50.009  40.363  0.00  0.00     0.007 C 
ATOM     14  C13 <0> d          52.426  49.681  38.875  0.00  0.00     0.013 C 
ATOM     15  C14 <0> d          51.253  50.252  38.114  0.00  0.00    -0.009 C 
ATOM     16  C15 <0> d          49.958  49.622  38.676  0.00  0.00     0.005 C 
ATOM     17  C16 <0> d          48.907  50.103  37.664  0.00  0.00     0.009 C 
ATOM     18  C17 <0> d          49.643  49.983  36.304  0.00  0.00     0.039 C 
ATOM     19  C18 <0> d          51.159  49.932  36.620  0.00  0.00     0.066 C 
ATOM     20  C22 <0> d          51.239  51.779  38.263  0.00  0.00     0.019 C 
ENDROOT
BRANCH  19  21
ATOM     21  C19 <0> d          51.720  48.550  36.300  0.00  0.00     0.049 C 
BRANCH  21  22
ATOM     22  C20 <0> d          50.580  47.622  35.879  0.00  0.00     0.116 C 
BRANCH  22  23
ATOM     23  C21 <0> d          50.437  46.511  36.889  0.00  0.00     0.172 C 
ATOM     24  O2  <0> d          51.388  45.819  37.163  0.00  0.00    -0.648 OA
ATOM     25  O4  <0> d          49.254  46.292  37.481  0.00  0.00    -0.648 OA
ENDBRANCH  22  23
ENDBRANCH  21  22
ENDBRANCH  19  21
BRANCH  19  26
ATOM     26  O3  <0> d          51.850  50.934  35.868  0.00  0.00    -0.389 OA
ATOM     27  H26 <0> d          51.346  51.750  35.744  0.00  0.00     0.210 HD
ENDBRANCH  19  26
TORSDOF 4
ENDMDL
MODEL 8
REMARK VINA RESULT:      -8.6      1.848      6.531
REMARK  4 active torsions:
REMARK  status: ('A' for Active; 'I' for Inactive)
REMARK    1  A    between atoms: C18_19  and  C19_20 
REMARK    2  A    between atoms: C18_19  and  O3_24 
REMARK    3  A    between atoms: C19_20  and  C20_21 
REMARK    4  A    between atoms: C20_21  and  C21_22 
ROOT
ATOM      1  C1  <0> d          51.388  48.626  39.158  0.00  0.00     0.021 C 
ATOM      2  C2  <0> d          50.483  49.207  38.073  0.00  0.00    -0.012 C 
ATOM      3  C3  <0> d          50.423  48.220  36.896  0.00  0.00     0.022 C 
ATOM      4  C4  <0> d          51.819  47.993  36.319  0.00  0.00     0.084 C 
ATOM      5  C5  <0> d          52.459  49.314  35.986  0.00  0.00     0.149 C 
ATOM      6  O1  <0> d          53.359  49.356  35.170  0.00  0.00    -0.293 OA
ATOM      7  C6  <0> d          52.026  50.496  36.600  0.00  0.00     0.058 C 
ATOM      8  C7  <0> d          51.084  50.498  37.575  0.00  0.00    -0.046 C 
ATOM      9  C8  <0> d          50.669  51.769  38.158  0.00  0.00     0.004 C 
ATOM     10  C9  <0> d          49.691  51.834  39.046  0.00  0.00    -0.021 C 
ATOM     11  C10 <0> d          48.896  50.640  39.491  0.00  0.00     0.018 C 
ATOM     12  C11 <0> d          49.065  49.439  38.580  0.00  0.00     0.006 C 
ATOM     13  C12 <0> d          48.440  48.161  39.115  0.00  0.00     0.007 C 
ATOM     14  C13 <0> d          48.635  47.907  40.611  0.00  0.00     0.013 C 
ATOM     15  C14 <0> d          48.274  49.148  41.392  0.00  0.00    -0.009 C 
ATOM     16  C15 <0> d          49.196  50.299  40.928  0.00  0.00     0.005 C 
ATOM     17  C16 <0> d          48.882  51.393  41.959  0.00  0.00     0.009 C 
ATOM     18  C17 <0> d          48.758  50.603  43.288  0.00  0.00     0.039 C 
ATOM     19  C18 <0> d          48.511  49.122  42.905  0.00  0.00     0.066 C 
ATOM     20  C22 <0> d          46.797  49.489  41.160  0.00  0.00     0.019 C 
ENDROOT
BRANCH  19  21
ATOM     21  C19 <0> d          49.721  48.271  43.276  0.00  0.00     0.049 C 
BRANCH  21  22
ATOM     22  C20 <0> d          49.288  47.156  44.229  0.00  0.00     0.116 C 
BRANCH  22  23
ATOM     23  C21 <0> d          49.477  45.819  43.559  0.00  0.00     0.172 C 
ATOM     24  O2  <0> d          50.587  45.438  43.273  0.00  0.00    -0.648 OA
ATOM     25  O4  <0> d          48.411  45.053  43.279  0.00  0.00    -0.648 OA
ENDBRANCH  22  23
ENDBRANCH  21  22
ENDBRANCH  19  21
BRANCH  19  26
ATOM     26  O3  <0> d          47.339  48.634  43.567  0.00  0.00    -0.389 OA
ATOM     27  H26 <0> d          47.449  48.508  44.519  0.00  0.00     0.210 HD
ENDBRANCH  19  26
TORSDOF 4
ENDMDL
MODEL 9
REMARK VINA RESULT:      -8.6      7.927     10.007
REMARK  4 active torsions:
REMARK  status: ('A' for Active; 'I' for Inactive)
REMARK    1  A    between atoms: C18_19  and  C19_20 
REMARK    2  A    between atoms: C18_19  and  O3_24 
REMARK    3  A    between atoms: C19_20  and  C20_21 
REMARK    4  A    between atoms: C20_21  and  C21_22 
ROOT
ATOM      1  C1  <0> d          45.472  48.482  46.212  0.00  0.00     0.021 C 
ATOM      2  C2  <0> d          46.698  49.080  45.523  0.00  0.00    -0.012 C 
ATOM      3  C3  <0> d          47.571  47.936  44.983  0.00  0.00     0.022 C 
ATOM      4  C4  <0> d          48.028  47.030  46.124  0.00  0.00     0.084 C 
ATOM      5  C5  <0> d          48.681  47.851  47.203  0.00  0.00     0.149 C 
ATOM      6  O1  <0> d          49.454  47.320  47.978  0.00  0.00    -0.293 OA
ATOM      7  C6  <0> d          48.416  49.222  47.322  0.00  0.00     0.058 C 
ATOM      8  C7  <0> d          47.503  49.849  46.540  0.00  0.00    -0.046 C 
ATOM      9  C8  <0> d          47.291  51.282  46.709  0.00  0.00     0.004 C 
ATOM     10  C9  <0> d          46.479  51.957  45.912  0.00  0.00    -0.021 C 
ATOM     11  C10 <0> d          45.755  51.339  44.750  0.00  0.00     0.018 C 
ATOM     12  C11 <0> d          46.310  49.982  44.357  0.00  0.00     0.006 C 
ATOM     13  C12 <0> d          45.472  49.244  43.326  0.00  0.00     0.007 C 
ATOM     14  C13 <0> d          43.957  49.322  43.528  0.00  0.00     0.013 C 
ATOM     15  C14 <0> d          43.544  50.758  43.749  0.00  0.00    -0.009 C 
ATOM     16  C15 <0> d          44.272  51.283  45.008  0.00  0.00     0.005 C 
ATOM     17  C16 <0> d          43.578  52.634  45.236  0.00  0.00     0.009 C 
ATOM     18  C17 <0> d          42.091  52.326  44.920  0.00  0.00     0.039 C 
ATOM     19  C18 <0> d          42.073  51.024  44.079  0.00  0.00     0.066 C 
ATOM     20  C22 <0> d          43.901  51.592  42.512  0.00  0.00     0.019 C 
ENDROOT
BRANCH  19  21
ATOM     21  C19 <0> d          41.456  49.885  44.883  0.00  0.00     0.049 C 
BRANCH  21  22
ATOM     22  C20 <0> d          40.749  50.453  46.114  0.00  0.00     0.116 C 
BRANCH  22  23
ATOM     23  C21 <0> d          39.603  49.551  46.496  0.00  0.00     0.172 C 
ATOM     24  O2  <0> d          38.503  49.743  46.034  0.00  0.00    -0.648 OA
ATOM     25  O4  <0> d          39.804  48.537  47.351  0.00  0.00    -0.648 OA
ENDBRANCH  22  23
ENDBRANCH  21  22
ENDBRANCH  19  21
BRANCH  19  26
ATOM     26  O3  <0> d          41.339  51.233  42.869  0.00  0.00    -0.389 OA
ATOM     27  H26 <0> d          41.895  51.345  42.086  0.00  0.00     0.210 HD
ENDBRANCH  19  26
TORSDOF 4
ENDMDL
MODEL 10
REMARK VINA RESULT:      -8.6     11.640     13.870
REMARK  4 active torsions:
REMARK  status: ('A' for Active; 'I' for Inactive)
REMARK    1  A    between atoms: C18_19  and  C19_20 
REMARK    2  A    between atoms: C18_19  and  O3_24 
REMARK    3  A    between atoms: C19_20  and  C20_21 
REMARK    4  A    between atoms: C20_21  and  C21_22 
ROOT
ATOM      1  C1  <0> d          38.170  53.341  45.551  0.00  0.00     0.021 C 
ATOM      2  C2  <0> d          39.106  52.914  46.681  0.00  0.00    -0.012 C 
ATOM      3  C3  <0> d          38.261  52.541  47.910  0.00  0.00     0.022 C 
ATOM      4  C4  <0> d          37.430  53.737  48.369  0.00  0.00     0.084 C 
ATOM      5  C5  <0> d          38.319  54.935  48.570  0.00  0.00     0.149 C 
ATOM      6  O1  <0> d          37.954  55.839  49.298  0.00  0.00    -0.293 OA
ATOM      7  C6  <0> d          39.565  55.018  47.936  0.00  0.00     0.058 C 
ATOM      8  C7  <0> d          39.988  54.081  47.052  0.00  0.00    -0.046 C 
ATOM      9  C8  <0> d          41.305  54.224  46.441  0.00  0.00     0.004 C 
ATOM     10  C9  <0> d          41.799  53.293  45.644  0.00  0.00    -0.021 C 
ATOM     11  C10 <0> d          41.093  52.003  45.338  0.00  0.00     0.018 C 
ATOM     12  C11 <0> d          39.952  51.708  46.294  0.00  0.00     0.006 C 
ATOM     13  C12 <0> d          39.093  50.522  45.887  0.00  0.00     0.007 C 
ATOM     14  C13 <0> d          38.768  50.423  44.395  0.00  0.00     0.013 C 
ATOM     15  C14 <0> d          40.032  50.579  43.584  0.00  0.00    -0.009 C 
ATOM     16  C15 <0> d          40.643  51.964  43.900  0.00  0.00     0.005 C 
ATOM     17  C16 <0> d          41.753  52.069  42.845  0.00  0.00     0.009 C 
ATOM     18  C17 <0> d          41.097  51.463  41.577  0.00  0.00     0.039 C 
ATOM     19  C18 <0> d          39.891  50.617  42.060  0.00  0.00     0.066 C 
ATOM     20  C22 <0> d          41.008  49.448  43.932  0.00  0.00     0.019 C 
ENDROOT
BRANCH  19  21
ATOM     21  C19 <0> d          38.582  51.268  41.627  0.00  0.00     0.049 C 
BRANCH  21  22
ATOM     22  C20 <0> d          37.691  50.223  40.954  0.00  0.00     0.116 C 
BRANCH  22  23
ATOM     23  C21 <0> d          36.334  50.220  41.611  0.00  0.00     0.172 C 
ATOM     24  O2  <0> d          35.988  49.274  42.278  0.00  0.00    -0.648 OA
ATOM     25  O4  <0> d          35.512  51.268  41.454  0.00  0.00    -0.648 OA
ENDBRANCH  22  23
ENDBRANCH  21  22
ENDBRANCH  19  21
BRANCH  19  26
ATOM     26  O3  <0> d          39.983  49.289  41.535  0.00  0.00    -0.389 OA
ATOM     27  H26 <0> d          40.864  48.896  41.611  0.00  0.00     0.210 HD
ENDBRANCH  19  26
TORSDOF 4
ENDMDL
