MODEL
REMARK VINA RESULT:      -8.5    
REMARK AD4  RESULT:      -6.92   
REMARK FIN. RESULT:      -7.67   
ATOM      1  C8  <0> d          51.740  48.238  40.354  0.00  0.00     0.253 C 
ATOM      2  O1  <0> d          52.714  47.812  40.937  0.00  0.00    -0.271 OA
ATOM      3  N1  <0> d          50.566  48.362  41.006  0.00  0.00    -0.344 N 
ATOM      4  H9  <0> d          49.786  48.702  40.541  0.00  0.00     0.163 HD
ATOM      5  C9  <0> d          50.468  47.980  42.418  0.00  0.00     0.200 C 
ATOM      6  C15 <0> d          50.103  46.537  42.639  0.00  0.00     0.250 C 
ATOM      7  N2  <0> d          49.130  46.848  43.475  0.00  0.00    -0.302 N 
ATOM      8  O2  <0> d          50.538  45.488  42.212  0.00  0.00    -0.271 OA
ATOM      9  C10 <0> d          49.119  48.268  43.042  0.00  0.00     0.125 C 
ATOM     10  C14 <0> d          48.333  46.304  44.507  0.00  0.00     0.133 C 
ATOM     11  C11 <0> d          49.124  49.107  44.329  0.00  0.00     0.034 C 
ATOM     12  C12 <0> d          47.918  48.690  45.174  0.00  0.00     0.056 C 
ATOM     13  C13 <0> d          47.770  47.209  45.328  0.00  0.00     0.045 C 
ATOM     14 Cl1  <0> d          46.803  46.622  46.644  0.00  0.00    -0.086 Cl
ATOM     15  C16 <0> d          48.133  44.857  44.672  0.00  0.00     0.228 C 
ATOM     16  O3  <0> d          48.842  44.228  45.434  0.00  0.00    -0.643 OA
ATOM     17  O4  <0> d          47.164  44.227  43.981  0.00  0.00    -0.643 OA
ATOM     18  C7  <0> d          51.840  48.630  38.903  0.00  0.00     0.307 C 
ATOM     19  C4  <0> d          52.136  50.103  38.801  0.00  0.00    -0.019 A 
ATOM     20  C3  <0> d          51.509  50.870  37.836  0.00  0.00     0.010 A 
ATOM     21  C2  <0> d          51.780  52.222  37.743  0.00  0.00     0.001 A 
ATOM     22  C1  <0> d          52.678  52.808  38.616  0.00  0.00     0.000 A 
ATOM     23  C6  <0> d          53.305  52.042  39.581  0.00  0.00     0.001 A 
ATOM     24  C5  <0> d          53.030  50.690  39.676  0.00  0.00     0.010 A 
ATOM     25  N3  <0> d          50.575  48.345  38.204  0.00  0.00    -0.062 N 
ATOM     26  H14 <0> d          50.712  48.409  37.196  0.00  0.00     0.275 HD
ATOM     27  H15 <0> d          50.245  47.412  38.443  0.00  0.00     0.275 HD
ATOM     28  H16 <0> d          49.870  49.034  38.491  0.00  0.00     0.275 HD
ENDMDL
MODEL
REMARK VINA RESULT:      -8.1    
REMARK AD4  RESULT:      -6.99   
REMARK FIN. RESULT:      -7.52   
ATOM      1  C8  <0> d          51.853  47.880  37.712  0.00  0.00     0.253 C 
ATOM      2  O1  <0> d          51.629  46.723  37.425  0.00  0.00    -0.271 OA
ATOM      3  N1  <0> d          51.952  48.246  39.005  0.00  0.00    -0.344 N 
ATOM      4  H9  <0> d          52.131  49.171  39.234  0.00  0.00     0.163 HD
ATOM      5  C9  <0> d          51.786  47.248  40.065  0.00  0.00     0.200 C 
ATOM      6  C15 <0> d          50.363  47.065  40.518  0.00  0.00     0.250 C 
ATOM      7  N2  <0> d          50.686  47.204  41.790  0.00  0.00    -0.302 N 
ATOM      8  O2  <0> d          49.317  46.866  39.935  0.00  0.00    -0.271 OA
ATOM      9  C10 <0> d          52.010  47.789  41.461  0.00  0.00     0.125 C 
ATOM     10  C14 <0> d          50.222  46.920  43.094  0.00  0.00     0.133 C 
ATOM     11  C11 <0> d          53.034  47.041  42.329  0.00  0.00     0.034 C 
ATOM     12  C12 <0> d          52.618  47.194  43.793  0.00  0.00     0.056 C 
ATOM     13  C13 <0> d          51.172  46.903  44.044  0.00  0.00     0.045 C 
ATOM     14 Cl1  <0> d          50.690  46.527  45.669  0.00  0.00    -0.086 Cl
ATOM     15  C16 <0> d          48.804  46.663  43.390  0.00  0.00     0.228 C 
ATOM     16  O3  <0> d          48.072  47.582  43.701  0.00  0.00    -0.643 OA
ATOM     17  O4  <0> d          48.317  45.409  43.315  0.00  0.00    -0.643 OA
ATOM     18  C7  <0> d          52.024  48.906  36.622  0.00  0.00     0.307 C 
ATOM     19  C4  <0> d          51.275  50.160  36.992  0.00  0.00    -0.019 A 
ATOM     20  C3  <0> d          51.965  51.275  37.427  0.00  0.00     0.010 A 
ATOM     21  C2  <0> d          51.277  52.426  37.766  0.00  0.00     0.001 A 
ATOM     22  C1  <0> d          49.898  52.461  37.669  0.00  0.00     0.000 A 
ATOM     23  C6  <0> d          49.209  51.345  37.233  0.00  0.00     0.001 A 
ATOM     24  C5  <0> d          49.897  50.196  36.889  0.00  0.00     0.010 A 
ATOM     25  N3  <0> d          51.500  48.394  35.344  0.00  0.00    -0.062 N 
ATOM     26  H14 <0> d          50.493  48.252  35.413  0.00  0.00     0.275 HD
ATOM     27  H15 <0> d          51.699  49.054  34.595  0.00  0.00     0.275 HD
ATOM     28  H16 <0> d          51.950  47.497  35.130  0.00  0.00     0.275 HD
ENDMDL
