MODEL 1
REMARK VINA RESULT:      -8.9      0.000      0.000
ATOM      1  C8  <0> d          51.361  49.959  40.950  0.00  0.00     0.253 C 
ATOM      2  O1  <0> d          50.806  50.975  41.310  0.00  0.00    -0.271 OA
ATOM      3  N1  <0> d          51.422  48.895  41.776  0.00  0.00    -0.344 N 
ATOM      4  H9  <0> d          51.866  48.082  41.488  0.00  0.00     0.163 HD
ATOM      5  C9  <0> d          50.819  48.968  43.110  0.00  0.00     0.200 C 
ATOM      6  C15 <0> d          51.110  47.775  43.980  0.00  0.00     0.250 C 
ATOM      7  N2  <0> d          49.835  47.608  44.280  0.00  0.00    -0.302 N 
ATOM      8  O2  <0> d          52.127  47.192  44.288  0.00  0.00    -0.271 OA
ATOM      9  C10 <0> d          49.387  48.480  43.166  0.00  0.00     0.125 C 
ATOM     10  C14 <0> d          48.987  47.005  45.237  0.00  0.00     0.133 C 
ATOM     11  C11 <0> d          48.357  49.448  43.770  0.00  0.00     0.034 C 
ATOM     12  C12 <0> d          47.245  48.616  44.415  0.00  0.00     0.056 C 
ATOM     13  C13 <0> d          47.746  47.518  45.299  0.00  0.00     0.045 C 
ATOM     14 Cl1  <0> d          46.651  46.857  46.472  0.00  0.00    -0.086 Cl
ATOM     15  C16 <0> d          49.429  45.900  46.100  0.00  0.00     0.228 C 
ATOM     16  O3  <0> d          49.919  46.136  47.187  0.00  0.00    -0.643 OA
ATOM     17  O4  <0> d          49.289  44.625  45.688  0.00  0.00    -0.643 OA
ATOM     18  C7  <0> d          51.981  49.884  39.578  0.00  0.00     0.307 C 
ATOM     19  C4  <0> d          52.365  51.269  39.125  0.00  0.00    -0.019 A 
ATOM     20  C3  <0> d          51.620  51.909  38.152  0.00  0.00     0.010 A 
ATOM     21  C2  <0> d          51.973  53.180  37.737  0.00  0.00     0.001 A 
ATOM     22  C1  <0> d          53.069  53.811  38.295  0.00  0.00     0.000 A 
ATOM     23  C6  <0> d          53.812  53.171  39.269  0.00  0.00     0.001 A 
ATOM     24  C5  <0> d          53.457  51.901  39.687  0.00  0.00     0.010 A 
ATOM     25  N3  <0> d          51.027  49.312  38.613  0.00  0.00    -0.062 N 
ATOM     26  H14 <0> d          51.096  49.802  37.722  0.00  0.00     0.275 HD
ATOM     27  H15 <0> d          51.222  48.322  38.472  0.00  0.00     0.275 HD
ATOM     28  H16 <0> d          50.074  49.416  38.979  0.00  0.00     0.275 HD
ENDMDL
MODEL 2
REMARK VINA RESULT:      -8.7      3.150      3.670
ATOM      1  C8  <0> d          51.585  46.624  40.541  0.00  0.00     0.253 C 
ATOM      2  O1  <0> d          52.568  47.169  40.995  0.00  0.00    -0.271 OA
ATOM      3  N1  <0> d          50.399  46.739  41.171  0.00  0.00    -0.344 N 
ATOM      4  H9  <0> d          49.613  46.302  40.808  0.00  0.00     0.163 HD
ATOM      5  C9  <0> d          50.298  47.522  42.406  0.00  0.00     0.200 C 
ATOM      6  C15 <0> d          50.204  46.687  43.655  0.00  0.00     0.250 C 
ATOM      7  N2  <0> d          49.145  47.345  44.087  0.00  0.00    -0.302 N 
ATOM      8  O2  <0> d          50.855  45.763  44.095  0.00  0.00    -0.271 OA
ATOM      9  C10 <0> d          48.887  47.944  42.754  0.00  0.00     0.125 C 
ATOM     10  C14 <0> d          48.412  47.624  45.263  0.00  0.00     0.133 C 
ATOM     11  C11 <0> d          48.661  49.445  42.997  0.00  0.00     0.034 C 
ATOM     12  C12 <0> d          47.512  49.597  43.996  0.00  0.00     0.056 C 
ATOM     13  C13 <0> d          47.642  48.725  45.205  0.00  0.00     0.045 C 
ATOM     14 Cl1  <0> d          46.734  49.157  46.620  0.00  0.00    -0.086 Cl
ATOM     15  C16 <0> d          48.483  46.773  46.460  0.00  0.00     0.228 C 
ATOM     16  O3  <0> d          47.744  45.813  46.569  0.00  0.00    -0.643 OA
ATOM     17  O4  <0> d          49.369  47.054  47.435  0.00  0.00    -0.643 OA
ATOM     18  C7  <0> d          51.689  45.819  39.271  0.00  0.00     0.307 C 
ATOM     19  C4  <0> d          51.128  46.618  38.124  0.00  0.00    -0.019 A 
ATOM     20  C3  <0> d          49.842  46.377  37.676  0.00  0.00     0.010 A 
ATOM     21  C2  <0> d          49.328  47.110  36.623  0.00  0.00     0.001 A 
ATOM     22  C1  <0> d          50.099  48.085  36.019  0.00  0.00     0.000 A 
ATOM     23  C6  <0> d          51.384  48.327  36.467  0.00  0.00     0.001 A 
ATOM     24  C5  <0> d          51.897  47.596  37.523  0.00  0.00     0.010 A 
ATOM     25  N3  <0> d          50.931  44.562  39.396  0.00  0.00    -0.062 N 
ATOM     26  H14 <0> d          51.349  43.972  40.115  0.00  0.00     0.275 HD
ATOM     27  H15 <0> d          49.963  44.759  39.640  0.00  0.00     0.275 HD
ATOM     28  H16 <0> d          50.956  44.064  38.499  0.00  0.00     0.275 HD
ENDMDL
MODEL 3
REMARK VINA RESULT:      -8.6      2.260      3.041
ATOM      1  C8  <0> d          51.061  49.580  38.511  0.00  0.00     0.253 C 
ATOM      2  O1  <0> d          51.810  48.721  38.098  0.00  0.00    -0.271 OA
ATOM      3  N1  <0> d          50.445  49.421  39.700  0.00  0.00    -0.344 N 
ATOM      4  H9  <0> d          49.845  50.108  40.031  0.00  0.00     0.163 HD
ATOM      5  C9  <0> d          50.679  48.210  40.491  0.00  0.00     0.200 C 
ATOM      6  C15 <0> d          49.429  47.604  41.070  0.00  0.00     0.250 C 
ATOM      7  N2  <0> d          49.948  47.542  42.282  0.00  0.00    -0.302 N 
ATOM      8  O2  <0> d          48.355  47.293  40.601  0.00  0.00    -0.271 OA
ATOM      9  C10 <0> d          51.046  48.479  41.935  0.00  0.00     0.125 C 
ATOM     10  C14 <0> d          49.798  46.885  43.524  0.00  0.00     0.133 C 
ATOM     11  C11 <0> d          52.341  47.827  42.446  0.00  0.00     0.034 C 
ATOM     12  C12 <0> d          52.180  47.562  43.945  0.00  0.00     0.056 C 
ATOM     13  C13 <0> d          50.892  46.890  44.306  0.00  0.00     0.045 C 
ATOM     14 Cl1  <0> d          50.803  46.075  45.835  0.00  0.00    -0.086 Cl
ATOM     15  C16 <0> d          48.539  46.243  43.933  0.00  0.00     0.228 C 
ATOM     16  O3  <0> d          47.752  46.844  44.638  0.00  0.00    -0.643 OA
ATOM     17  O4  <0> d          48.257  44.991  43.524  0.00  0.00    -0.643 OA
ATOM     18  C7  <0> d          50.820  50.825  37.698  0.00  0.00     0.307 C 
ATOM     19  C4  <0> d          51.830  51.876  38.078  0.00  0.00    -0.019 A 
ATOM     20  C3  <0> d          52.712  51.643  39.118  0.00  0.00     0.010 A 
ATOM     21  C2  <0> d          53.639  52.608  39.466  0.00  0.00     0.001 A 
ATOM     22  C1  <0> d          53.685  53.804  38.775  0.00  0.00     0.000 A 
ATOM     23  C6  <0> d          52.804  54.036  37.736  0.00  0.00     0.001 A 
ATOM     24  C5  <0> d          51.880  53.069  37.384  0.00  0.00     0.010 A 
ATOM     25  N3  <0> d          49.466  51.349  37.948  0.00  0.00    -0.062 N 
ATOM     26  H14 <0> d          49.442  52.352  37.768  0.00  0.00     0.275 HD
ATOM     27  H15 <0> d          48.792  50.880  37.346  0.00  0.00     0.275 HD
ATOM     28  H16 <0> d          49.215  51.178  38.928  0.00  0.00     0.275 HD
ENDMDL
MODEL 4
REMARK VINA RESULT:      -8.5      1.566      1.731
ATOM      1  C8  <0> d          51.740  48.238  40.354  0.00  0.00     0.253 C 
ATOM      2  O1  <0> d          52.714  47.812  40.937  0.00  0.00    -0.271 OA
ATOM      3  N1  <0> d          50.566  48.362  41.006  0.00  0.00    -0.344 N 
ATOM      4  H9  <0> d          49.786  48.702  40.541  0.00  0.00     0.163 HD
ATOM      5  C9  <0> d          50.468  47.980  42.418  0.00  0.00     0.200 C 
ATOM      6  C15 <0> d          50.103  46.537  42.639  0.00  0.00     0.250 C 
ATOM      7  N2  <0> d          49.130  46.848  43.475  0.00  0.00    -0.302 N 
ATOM      8  O2  <0> d          50.538  45.488  42.212  0.00  0.00    -0.271 OA
ATOM      9  C10 <0> d          49.119  48.268  43.042  0.00  0.00     0.125 C 
ATOM     10  C14 <0> d          48.333  46.304  44.507  0.00  0.00     0.133 C 
ATOM     11  C11 <0> d          49.124  49.107  44.329  0.00  0.00     0.034 C 
ATOM     12  C12 <0> d          47.918  48.690  45.174  0.00  0.00     0.056 C 
ATOM     13  C13 <0> d          47.770  47.209  45.328  0.00  0.00     0.045 C 
ATOM     14 Cl1  <0> d          46.803  46.622  46.644  0.00  0.00    -0.086 Cl
ATOM     15  C16 <0> d          48.133  44.857  44.672  0.00  0.00     0.228 C 
ATOM     16  O3  <0> d          48.842  44.228  45.434  0.00  0.00    -0.643 OA
ATOM     17  O4  <0> d          47.164  44.227  43.981  0.00  0.00    -0.643 OA
ATOM     18  C7  <0> d          51.840  48.630  38.903  0.00  0.00     0.307 C 
ATOM     19  C4  <0> d          52.136  50.103  38.801  0.00  0.00    -0.019 A 
ATOM     20  C3  <0> d          51.509  50.870  37.836  0.00  0.00     0.010 A 
ATOM     21  C2  <0> d          51.780  52.222  37.743  0.00  0.00     0.001 A 
ATOM     22  C1  <0> d          52.678  52.808  38.616  0.00  0.00     0.000 A 
ATOM     23  C6  <0> d          53.305  52.042  39.581  0.00  0.00     0.001 A 
ATOM     24  C5  <0> d          53.030  50.690  39.676  0.00  0.00     0.010 A 
ATOM     25  N3  <0> d          50.575  48.345  38.204  0.00  0.00    -0.062 N 
ATOM     26  H14 <0> d          50.712  48.409  37.196  0.00  0.00     0.275 HD
ATOM     27  H15 <0> d          50.245  47.412  38.443  0.00  0.00     0.275 HD
ATOM     28  H16 <0> d          49.870  49.034  38.491  0.00  0.00     0.275 HD
ENDMDL
MODEL 5
REMARK VINA RESULT:      -8.3      4.016      8.045
ATOM      1  C8  <0> d          49.601  48.159  45.155  0.00  0.00     0.253 C 
ATOM      2  O1  <0> d          50.675  48.722  45.169  0.00  0.00    -0.271 OA
ATOM      3  N1  <0> d          48.939  47.999  43.991  0.00  0.00    -0.344 N 
ATOM      4  H9  <0> d          48.080  47.549  43.980  0.00  0.00     0.163 HD
ATOM      5  C9  <0> d          49.517  48.507  42.744  0.00  0.00     0.200 C 
ATOM      6  C15 <0> d          48.628  48.337  41.542  0.00  0.00     0.250 C 
ATOM      7  N2  <0> d          49.591  47.778  40.834  0.00  0.00    -0.302 N 
ATOM      8  O2  <0> d          47.469  48.610  41.313  0.00  0.00    -0.271 OA
ATOM      9  C10 <0> d          50.421  47.519  42.037  0.00  0.00     0.125 C 
ATOM     10  C14 <0> d          49.976  47.502  39.502  0.00  0.00     0.133 C 
ATOM     11  C11 <0> d          51.836  48.010  41.692  0.00  0.00     0.034 C 
ATOM     12  C12 <0> d          52.299  47.278  40.431  0.00  0.00     0.056 C 
ATOM     13  C13 <0> d          51.290  47.280  39.325  0.00  0.00     0.045 C 
ATOM     14 Cl1  <0> d          51.852  46.968  37.713  0.00  0.00    -0.086 Cl
ATOM     15  C16 <0> d          49.012  47.459  38.393  0.00  0.00     0.228 C 
ATOM     16  O3  <0> d          48.414  46.430  38.146  0.00  0.00    -0.643 OA
ATOM     17  O4  <0> d          48.790  48.561  37.650  0.00  0.00    -0.643 OA
ATOM     18  C7  <0> d          49.007  47.637  46.438  0.00  0.00     0.307 C 
ATOM     19  C4  <0> d          48.265  46.355  46.161  0.00  0.00    -0.019 A 
ATOM     20  C3  <0> d          46.886  46.322  46.243  0.00  0.00     0.010 A 
ATOM     21  C2  <0> d          46.206  45.145  45.990  0.00  0.00     0.001 A 
ATOM     22  C1  <0> d          46.906  44.002  45.653  0.00  0.00     0.000 A 
ATOM     23  C6  <0> d          48.285  44.035  45.570  0.00  0.00     0.001 A 
ATOM     24  C5  <0> d          48.965  45.213  45.820  0.00  0.00     0.010 A 
ATOM     25  N3  <0> d          48.069  48.620  47.007  0.00  0.00    -0.062 N 
ATOM     26  H14 <0> d          47.468  48.994  46.274  0.00  0.00     0.275 HD
ATOM     27  H15 <0> d          47.494  48.180  47.724  0.00  0.00     0.275 HD
ATOM     28  H16 <0> d          48.601  49.388  47.429  0.00  0.00     0.275 HD
ENDMDL
MODEL 6
REMARK VINA RESULT:      -8.3      3.803      4.872
ATOM      1  C8  <0> d          49.768  47.601  39.968  0.00  0.00     0.253 C 
ATOM      2  O1  <0> d          48.620  47.257  39.780  0.00  0.00    -0.271 OA
ATOM      3  N1  <0> d          50.046  48.551  40.883  0.00  0.00    -0.344 N 
ATOM      4  H9  <0> d          50.964  48.826  41.034  0.00  0.00     0.163 HD
ATOM      5  C9  <0> d          48.960  49.170  41.649  0.00  0.00     0.200 C 
ATOM      6  C15 <0> d          49.136  50.647  41.876  0.00  0.00     0.250 C 
ATOM      7  N2  <0> d          48.921  50.534  43.173  0.00  0.00    -0.302 N 
ATOM      8  O2  <0> d          49.381  51.584  41.145  0.00  0.00    -0.271 OA
ATOM      9  C10 <0> d          49.127  49.065  43.149  0.00  0.00     0.125 C 
ATOM     10  C14 <0> d          48.545  51.287  44.309  0.00  0.00     0.133 C 
ATOM     11  C11 <0> d          47.950  48.456  43.928  0.00  0.00     0.034 C 
ATOM     12  C12 <0> d          47.936  49.074  45.328  0.00  0.00     0.056 C 
ATOM     13  C13 <0> d          48.056  50.566  45.333  0.00  0.00     0.045 C 
ATOM     14 Cl1  <0> d          47.538  51.418  46.753  0.00  0.00    -0.086 Cl
ATOM     15  C16 <0> d          48.680  52.750  44.368  0.00  0.00     0.228 C 
ATOM     16  O3  <0> d          49.761  53.252  44.606  0.00  0.00    -0.643 OA
ATOM     17  O4  <0> d          47.606  53.535  44.156  0.00  0.00    -0.643 OA
ATOM     18  C7  <0> d          50.884  46.964  39.181  0.00  0.00     0.307 C 
ATOM     19  C4  <0> d          50.812  47.422  37.747  0.00  0.00    -0.019 A 
ATOM     20  C3  <0> d          50.067  46.706  36.829  0.00  0.00     0.010 A 
ATOM     21  C2  <0> d          50.001  47.128  35.514  0.00  0.00     0.001 A 
ATOM     22  C1  <0> d          50.679  48.265  35.117  0.00  0.00     0.000 A 
ATOM     23  C6  <0> d          51.423  48.982  36.036  0.00  0.00     0.001 A 
ATOM     24  C5  <0> d          51.486  48.562  37.353  0.00  0.00     0.010 A 
ATOM     25  N3  <0> d          50.769  45.496  39.220  0.00  0.00    -0.062 N 
ATOM     26  H14 <0> d          49.814  45.215  39.004  0.00  0.00     0.275 HD
ATOM     27  H15 <0> d          51.407  45.076  38.547  0.00  0.00     0.275 HD
ATOM     28  H16 <0> d          51.010  45.165  40.161  0.00  0.00     0.275 HD
ENDMDL
MODEL 7
REMARK VINA RESULT:      -8.2      2.850      3.466
ATOM      1  C8  <0> d          51.437  49.839  40.365  0.00  0.00     0.253 C 
ATOM      2  O1  <0> d          52.028  49.177  41.192  0.00  0.00    -0.271 OA
ATOM      3  N1  <0> d          50.272  50.436  40.688  0.00  0.00    -0.344 N 
ATOM      4  H9  <0> d          49.799  50.966  40.027  0.00  0.00     0.163 HD
ATOM      5  C9  <0> d          49.719  50.284  42.037  0.00  0.00     0.200 C 
ATOM      6  C15 <0> d          48.578  49.307  42.125  0.00  0.00     0.250 C 
ATOM      7  N2  <0> d          47.811  50.169  42.766  0.00  0.00    -0.302 N 
ATOM      8  O2  <0> d          48.423  48.164  41.750  0.00  0.00    -0.271 OA
ATOM      9  C10 <0> d          48.674  51.318  42.395  0.00  0.00     0.125 C 
ATOM     10  C14 <0> d          46.672  50.240  43.600  0.00  0.00     0.133 C 
ATOM     11  C11 <0> d          48.910  52.110  43.691  0.00  0.00     0.034 C 
ATOM     12  C12 <0> d          47.545  52.499  44.266  0.00  0.00     0.056 C 
ATOM     13  C13 <0> d          46.571  51.365  44.329  0.00  0.00     0.045 C 
ATOM     14 Cl1  <0> d          45.218  51.516  45.406  0.00  0.00    -0.086 Cl
ATOM     15  C16 <0> d          45.672  49.164  43.665  0.00  0.00     0.228 C 
ATOM     16  O3  <0> d          44.737  49.155  42.888  0.00  0.00    -0.643 OA
ATOM     17  O4  <0> d          45.792  48.187  44.585  0.00  0.00    -0.643 OA
ATOM     18  C7  <0> d          52.005  49.996  38.978  0.00  0.00     0.307 C 
ATOM     19  C4  <0> d          52.485  51.411  38.790  0.00  0.00    -0.019 A 
ATOM     20  C3  <0> d          53.558  51.881  39.524  0.00  0.00     0.010 A 
ATOM     21  C2  <0> d          53.998  53.180  39.351  0.00  0.00     0.001 A 
ATOM     22  C1  <0> d          53.366  54.009  38.444  0.00  0.00     0.000 A 
ATOM     23  C6  <0> d          52.293  53.539  37.709  0.00  0.00     0.001 A 
ATOM     24  C5  <0> d          51.856  52.238  37.879  0.00  0.00     0.010 A 
ATOM     25  N3  <0> d          50.977  49.699  37.965  0.00  0.00    -0.062 N 
ATOM     26  H14 <0> d          50.979  48.703  37.748  0.00  0.00     0.275 HD
ATOM     27  H15 <0> d          50.058  49.970  38.309  0.00  0.00     0.275 HD
ATOM     28  H16 <0> d          51.185  50.228  37.110  0.00  0.00     0.275 HD
ENDMDL
MODEL 8
REMARK VINA RESULT:      -8.2      3.301      8.167
ATOM      1  C8  <0> d          50.572  47.150  45.056  0.00  0.00     0.253 C 
ATOM      2  O1  <0> d          51.671  46.648  45.160  0.00  0.00    -0.271 OA
ATOM      3  N1  <0> d          50.192  47.703  43.886  0.00  0.00    -0.344 N 
ATOM      4  H9  <0> d          49.314  48.105  43.802  0.00  0.00     0.163 HD
ATOM      5  C9  <0> d          51.108  47.699  42.742  0.00  0.00     0.200 C 
ATOM      6  C15 <0> d          50.972  48.898  41.842  0.00  0.00     0.250 C 
ATOM      7  N2  <0> d          50.877  48.150  40.759  0.00  0.00    -0.302 N 
ATOM      8  O2  <0> d          50.955  50.094  42.039  0.00  0.00    -0.271 OA
ATOM      9  C10 <0> d          50.596  46.923  41.547  0.00  0.00     0.125 C 
ATOM     10  C14 <0> d          51.026  48.201  39.355  0.00  0.00     0.133 C 
ATOM     11  C11 <0> d          51.526  45.835  40.987  0.00  0.00     0.034 C 
ATOM     12  C12 <0> d          51.255  45.704  39.486  0.00  0.00     0.056 C 
ATOM     13  C13 <0> d          51.225  47.012  38.760  0.00  0.00     0.045 C 
ATOM     14 Cl1  <0> d          51.452  46.991  37.040  0.00  0.00    -0.086 Cl
ATOM     15  C16 <0> d          50.967  49.462  38.599  0.00  0.00     0.228 C 
ATOM     16  O3  <0> d          51.972  50.130  38.451  0.00  0.00    -0.643 OA
ATOM     17  O4  <0> d          49.800  49.876  38.069  0.00  0.00    -0.643 OA
ATOM     18  C7  <0> d          49.631  47.155  46.232  0.00  0.00     0.307 C 
ATOM     19  C4  <0> d          48.572  46.102  46.031  0.00  0.00    -0.019 A 
ATOM     20  C3  <0> d          48.934  44.816  45.677  0.00  0.00     0.010 A 
ATOM     21  C2  <0> d          47.962  43.850  45.493  0.00  0.00     0.001 A 
ATOM     22  C1  <0> d          46.628  44.171  45.663  0.00  0.00     0.000 A 
ATOM     23  C6  <0> d          46.266  45.457  46.019  0.00  0.00     0.001 A 
ATOM     24  C5  <0> d          47.239  46.421  46.207  0.00  0.00     0.010 A 
ATOM     25  N3  <0> d          48.980  48.470  46.365  0.00  0.00    -0.062 N 
ATOM     26  H14 <0> d          49.347  49.113  45.665  0.00  0.00     0.275 HD
ATOM     27  H15 <0> d          47.974  48.376  46.245  0.00  0.00     0.275 HD
ATOM     28  H16 <0> d          49.172  48.848  47.300  0.00  0.00     0.275 HD
ENDMDL
MODEL 9
REMARK VINA RESULT:      -8.1      3.185      4.118
ATOM      1  C8  <0> d          51.060  49.597  39.224  0.00  0.00     0.253 C 
ATOM      2  O1  <0> d          51.285  48.560  39.813  0.00  0.00    -0.271 OA
ATOM      3  N1  <0> d          50.052  50.396  39.630  0.00  0.00    -0.344 N 
ATOM      4  H9  <0> d          49.871  51.225  39.160  0.00  0.00     0.163 HD
ATOM      5  C9  <0> d          49.229  50.011  40.780  0.00  0.00     0.200 C 
ATOM      6  C15 <0> d          48.280  51.084  41.241  0.00  0.00     0.250 C 
ATOM      7  N2  <0> d          48.676  50.980  42.495  0.00  0.00    -0.302 N 
ATOM      8  O2  <0> d          47.462  51.778  40.675  0.00  0.00    -0.271 OA
ATOM      9  C10 <0> d          49.900  50.230  42.119  0.00  0.00     0.125 C 
ATOM     10  C14 <0> d          48.271  51.269  43.818  0.00  0.00     0.133 C 
ATOM     11  C11 <0> d          49.964  49.016  43.060  0.00  0.00     0.034 C 
ATOM     12  C12 <0> d          49.951  49.532  44.501  0.00  0.00     0.056 C 
ATOM     13  C13 <0> d          48.885  50.547  44.772  0.00  0.00     0.045 C 
ATOM     14 Cl1  <0> d          48.420  50.816  46.422  0.00  0.00    -0.086 Cl
ATOM     15  C16 <0> d          47.253  52.284  44.129  0.00  0.00     0.228 C 
ATOM     16  O3  <0> d          47.573  53.452  44.240  0.00  0.00    -0.643 OA
ATOM     17  O4  <0> d          45.966  51.921  44.291  0.00  0.00    -0.643 OA
ATOM     18  C7  <0> d          51.906  49.992  38.042  0.00  0.00     0.307 C 
ATOM     19  C4  <0> d          52.428  51.391  38.245  0.00  0.00    -0.019 A 
ATOM     20  C3  <0> d          53.380  51.639  39.217  0.00  0.00     0.010 A 
ATOM     21  C2  <0> d          53.859  52.923  39.403  0.00  0.00     0.001 A 
ATOM     22  C1  <0> d          53.388  53.957  38.616  0.00  0.00     0.000 A 
ATOM     23  C6  <0> d          52.437  53.708  37.644  0.00  0.00     0.001 A 
ATOM     24  C5  <0> d          51.961  52.423  37.455  0.00  0.00     0.010 A 
ATOM     25  N3  <0> d          51.110  49.953  36.804  0.00  0.00    -0.062 N 
ATOM     26  H14 <0> d          51.146  49.020  36.395  0.00  0.00     0.275 HD
ATOM     27  H15 <0> d          50.142  50.198  37.002  0.00  0.00     0.275 HD
ATOM     28  H16 <0> d          51.496  50.627  36.133  0.00  0.00     0.275 HD
ENDMDL
MODEL 10
REMARK VINA RESULT:      -8.1      3.808      8.079
ATOM      1  C8  <0> d          52.206  47.573  42.803  0.00  0.00     0.253 C 
ATOM      2  O1  <0> d          53.165  46.876  42.547  0.00  0.00    -0.271 OA
ATOM      3  N1  <0> d          51.533  48.184  41.807  0.00  0.00    -0.344 N 
ATOM      4  H9  <0> d          50.766  48.742  42.011  0.00  0.00     0.163 HD
ATOM      5  C9  <0> d          51.962  48.009  40.417  0.00  0.00     0.200 C 
ATOM      6  C15 <0> d          51.819  49.245  39.570  0.00  0.00     0.250 C 
ATOM      7  N2  <0> d          51.173  48.593  38.622  0.00  0.00    -0.302 N 
ATOM      8  O2  <0> d          52.167  50.398  39.708  0.00  0.00    -0.271 OA
ATOM      9  C10 <0> d          50.893  47.438  39.510  0.00  0.00     0.125 C 
ATOM     10  C14 <0> d          50.831  48.671  37.253  0.00  0.00     0.133 C 
ATOM     11  C11 <0> d          51.272  46.182  38.709  0.00  0.00     0.034 C 
ATOM     12  C12 <0> d          50.472  46.190  37.405  0.00  0.00     0.056 C 
ATOM     13  C13 <0> d          50.513  47.498  36.678  0.00  0.00     0.045 C 
ATOM     14 Cl1  <0> d          50.114  47.502  34.989  0.00  0.00    -0.086 Cl
ATOM     15  C16 <0> d          50.824  49.941  36.511  0.00  0.00     0.228 C 
ATOM     16  O3  <0> d          49.796  50.583  36.415  0.00  0.00    -0.643 OA
ATOM     17  O4  <0> d          51.956  50.395  35.939  0.00  0.00    -0.643 OA
ATOM     18  C7  <0> d          51.765  47.754  44.233  0.00  0.00     0.307 C 
ATOM     19  C4  <0> d          50.649  46.790  44.539  0.00  0.00    -0.019 A 
ATOM     20  C3  <0> d          49.975  46.161  43.508  0.00  0.00     0.010 A 
ATOM     21  C2  <0> d          48.951  45.276  43.789  0.00  0.00     0.001 A 
ATOM     22  C1  <0> d          48.601  45.019  45.101  0.00  0.00     0.000 A 
ATOM     23  C6  <0> d          49.274  45.647  46.132  0.00  0.00     0.001 A 
ATOM     24  C5  <0> d          50.302  46.529  45.851  0.00  0.00     0.010 A 
ATOM     25  N3  <0> d          51.284  49.129  44.453  0.00  0.00    -0.062 N 
ATOM     26  H14 <0> d          50.432  49.290  43.917  0.00  0.00     0.275 HD
ATOM     27  H15 <0> d          51.097  49.280  45.442  0.00  0.00     0.275 HD
ATOM     28  H16 <0> d          52.004  49.791  44.143  0.00  0.00     0.275 HD
ENDMDL
MODEL 1
REMARK VINA RESULT:      -9.0      0.000      0.000
ATOM      1  C8  <0> d          51.408  49.999  40.970  0.00  0.00     0.253 C 
ATOM      2  O1  <0> d          50.846  51.018  41.312  0.00  0.00    -0.271 OA
ATOM      3  N1  <0> d          51.458  48.945  41.808  0.00  0.00    -0.344 N 
ATOM      4  H9  <0> d          51.907  48.129  41.536  0.00  0.00     0.163 HD
ATOM      5  C9  <0> d          50.838  49.030  43.133  0.00  0.00     0.200 C 
ATOM      6  C15 <0> d          51.132  47.854  44.025  0.00  0.00     0.250 C 
ATOM      7  N2  <0> d          49.855  47.676  44.311  0.00  0.00    -0.302 N 
ATOM      8  O2  <0> d          52.152  47.288  44.355  0.00  0.00    -0.271 OA
ATOM      9  C10 <0> d          49.411  48.525  43.179  0.00  0.00     0.125 C 
ATOM     10  C14 <0> d          49.002  47.078  45.267  0.00  0.00     0.133 C 
ATOM     11  C11 <0> d          48.361  49.490  43.755  0.00  0.00     0.034 C 
ATOM     12  C12 <0> d          47.251  48.655  44.397  0.00  0.00     0.056 C 
ATOM     13  C13 <0> d          47.755  47.576  45.304  0.00  0.00     0.045 C 
ATOM     14 Cl1  <0> d          46.652  46.920  46.474  0.00  0.00    -0.086 Cl
ATOM     15  C16 <0> d          49.446  45.991  46.153  0.00  0.00     0.228 C 
ATOM     16  O3  <0> d          49.948  46.249  47.229  0.00  0.00    -0.643 OA
ATOM     17  O4  <0> d          49.292  44.707  45.771  0.00  0.00    -0.643 OA
ATOM     18  C7  <0> d          52.046  49.911  39.608  0.00  0.00     0.307 C 
ATOM     19  C4  <0> d          52.447  51.290  39.152  0.00  0.00    -0.019 A 
ATOM     20  C3  <0> d          53.589  51.881  39.658  0.00  0.00     0.010 A 
ATOM     21  C2  <0> d          53.956  53.147  39.239  0.00  0.00     0.001 A 
ATOM     22  C1  <0> d          53.183  53.820  38.314  0.00  0.00     0.000 A 
ATOM     23  C6  <0> d          52.041  53.228  37.806  0.00  0.00     0.001 A 
ATOM     24  C5  <0> d          51.676  51.961  38.222  0.00  0.00     0.010 A 
ATOM     25  N3  <0> d          51.101  49.340  38.633  0.00  0.00    -0.062 N 
ATOM     26  H14 <0> d          50.753  50.071  38.015  0.00  0.00     0.275 HD
ATOM     27  H15 <0> d          51.562  48.620  38.080  0.00  0.00     0.275 HD
ATOM     28  H16 <0> d          50.310  48.922  39.135  0.00  0.00     0.275 HD
ENDMDL
MODEL 2
REMARK VINA RESULT:      -8.6      2.255      2.970
ATOM      1  C8  <0> d          50.678  49.690  38.834  0.00  0.00     0.253 C 
ATOM      2  O1  <0> d          51.314  48.798  38.315  0.00  0.00    -0.271 OA
ATOM      3  N1  <0> d          50.248  49.560  40.104  0.00  0.00    -0.344 N 
ATOM      4  H9  <0> d          49.740  50.274  40.520  0.00  0.00     0.163 HD
ATOM      5  C9  <0> d          50.545  48.338  40.858  0.00  0.00     0.200 C 
ATOM      6  C15 <0> d          49.324  47.580  41.303  0.00  0.00     0.250 C 
ATOM      7  N2  <0> d          49.751  47.507  42.550  0.00  0.00    -0.302 N 
ATOM      8  O2  <0> d          48.329  47.187  40.732  0.00  0.00    -0.271 OA
ATOM      9  C10 <0> d          50.767  48.567  42.338  0.00  0.00     0.125 C 
ATOM     10  C14 <0> d          49.574  46.773  43.745  0.00  0.00     0.133 C 
ATOM     11  C11 <0> d          52.080  48.022  42.926  0.00  0.00     0.034 C 
ATOM     12  C12 <0> d          51.831  47.664  44.392  0.00  0.00     0.056 C 
ATOM     13  C13 <0> d          50.596  46.848  44.614  0.00  0.00     0.045 C 
ATOM     14 Cl1  <0> d          50.474  45.947  46.093  0.00  0.00    -0.086 Cl
ATOM     15  C16 <0> d          48.361  45.987  44.018  0.00  0.00     0.228 C 
ATOM     16  O3  <0> d          48.237  44.875  43.544  0.00  0.00    -0.643 OA
ATOM     17  O4  <0> d          47.388  46.500  44.798  0.00  0.00    -0.643 OA
ATOM     18  C7  <0> d          50.373  50.946  38.059  0.00  0.00     0.307 C 
ATOM     19  C4  <0> d          51.490  51.939  38.254  0.00  0.00    -0.019 A 
ATOM     20  C3  <0> d          51.557  53.069  37.461  0.00  0.00     0.010 A 
ATOM     21  C2  <0> d          52.583  53.980  37.641  0.00  0.00     0.001 A 
ATOM     22  C1  <0> d          53.539  53.761  38.613  0.00  0.00     0.000 A 
ATOM     23  C6  <0> d          53.471  52.631  39.408  0.00  0.00     0.001 A 
ATOM     24  C5  <0> d          52.443  51.723  39.232  0.00  0.00     0.010 A 
ATOM     25  N3  <0> d          49.112  51.547  38.528  0.00  0.00    -0.062 N 
ATOM     26  H14 <0> d          48.323  51.120  38.047  0.00  0.00     0.275 HD
ATOM     27  H15 <0> d          49.012  51.409  39.532  0.00  0.00     0.275 HD
ATOM     28  H16 <0> d          49.123  52.553  38.327  0.00  0.00     0.275 HD
ENDMDL
MODEL 3
REMARK VINA RESULT:      -8.5      2.865      3.570
ATOM      1  C8  <0> d          51.607  46.898  40.609  0.00  0.00     0.253 C 
ATOM      2  O1  <0> d          52.668  47.219  41.103  0.00  0.00    -0.271 OA
ATOM      3  N1  <0> d          50.459  47.122  41.278  0.00  0.00    -0.344 N 
ATOM      4  H9  <0> d          49.610  46.865  40.884  0.00  0.00     0.163 HD
ATOM      5  C9  <0> d          50.491  47.750  42.601  0.00  0.00     0.200 C 
ATOM      6  C15 <0> d          50.239  46.797  43.738  0.00  0.00     0.250 C 
ATOM      7  N2  <0> d          49.312  47.576  44.265  0.00  0.00    -0.302 N 
ATOM      8  O2  <0> d          50.710  45.725  44.051  0.00  0.00    -0.271 OA
ATOM      9  C10 <0> d          49.175  48.371  43.020  0.00  0.00     0.125 C 
ATOM     10  C14 <0> d          48.632  47.833  45.477  0.00  0.00     0.133 C 
ATOM     11  C11 <0> d          49.220  49.847  43.450  0.00  0.00     0.034 C 
ATOM     12  C12 <0> d          48.110  50.077  44.476  0.00  0.00     0.056 C 
ATOM     13  C13 <0> d          48.073  49.052  45.566  0.00  0.00     0.045 C 
ATOM     14 Cl1  <0> d          47.246  49.461  47.038  0.00  0.00    -0.086 Cl
ATOM     15  C16 <0> d          48.540  46.841  46.559  0.00  0.00     0.228 C 
ATOM     16  O3  <0> d          47.615  46.054  46.586  0.00  0.00    -0.643 OA
ATOM     17  O4  <0> d          49.486  46.803  47.519  0.00  0.00    -0.643 OA
ATOM     18  C7  <0> d          51.575  46.252  39.249  0.00  0.00     0.307 C 
ATOM     19  C4  <0> d          50.835  47.147  38.287  0.00  0.00    -0.019 A 
ATOM     20  C3  <0> d          49.637  46.731  37.737  0.00  0.00     0.010 A 
ATOM     21  C2  <0> d          48.959  47.553  36.855  0.00  0.00     0.001 A 
ATOM     22  C1  <0> d          49.478  48.789  36.525  0.00  0.00     0.000 A 
ATOM     23  C6  <0> d          50.675  49.206  37.076  0.00  0.00     0.001 A 
ATOM     24  C5  <0> d          51.351  48.387  37.961  0.00  0.00     0.010 A 
ATOM     25  N3  <0> d          50.890  44.949  39.313  0.00  0.00    -0.062 N 
ATOM     26  H14 <0> d          51.320  44.297  38.659  0.00  0.00     0.275 HD
ATOM     27  H15 <0> d          50.947  44.571  40.256  0.00  0.00     0.275 HD
ATOM     28  H16 <0> d          49.903  45.075  39.061  0.00  0.00     0.275 HD
ENDMDL
MODEL 4
REMARK VINA RESULT:      -8.4      2.254      2.915
ATOM      1  C8  <0> d          50.640  49.806  38.949  0.00  0.00     0.253 C 
ATOM      2  O1  <0> d          49.485  50.121  38.758  0.00  0.00    -0.271 OA
ATOM      3  N1  <0> d          50.989  49.193  40.097  0.00  0.00    -0.344 N 
ATOM      4  H9  <0> d          51.913  48.941  40.251  0.00  0.00     0.163 HD
ATOM      5  C9  <0> d          49.974  48.911  41.116  0.00  0.00     0.200 C 
ATOM      6  C15 <0> d          49.852  49.976  42.172  0.00  0.00     0.250 C 
ATOM      7  N2  <0> d          49.943  49.097  43.153  0.00  0.00    -0.302 N 
ATOM      8  O2  <0> d          49.720  51.181  42.134  0.00  0.00    -0.271 OA
ATOM      9  C10 <0> d          50.468  48.042  42.253  0.00  0.00     0.125 C 
ATOM     10  C14 <0> d          49.648  48.928  44.525  0.00  0.00     0.133 C 
ATOM     11  C11 <0> d          49.648  46.776  42.555  0.00  0.00     0.034 C 
ATOM     12  C12 <0> d          49.785  46.466  44.046  0.00  0.00     0.056 C 
ATOM     13  C13 <0> d          49.560  47.650  44.933  0.00  0.00     0.045 C 
ATOM     14 Cl1  <0> d          49.168  47.354  46.599  0.00  0.00    -0.086 Cl
ATOM     15  C16 <0> d          49.456  50.064  45.439  0.00  0.00     0.228 C 
ATOM     16  O3  <0> d          50.416  50.689  45.844  0.00  0.00    -0.643 OA
ATOM     17  O4  <0> d          48.213  50.414  45.825  0.00  0.00    -0.643 OA
ATOM     18  C7  <0> d          51.683  50.096  37.902  0.00  0.00     0.307 C 
ATOM     19  C4  <0> d          52.275  51.461  38.147  0.00  0.00    -0.019 A 
ATOM     20  C3  <0> d          51.861  52.541  37.391  0.00  0.00     0.010 A 
ATOM     21  C2  <0> d          52.404  53.792  37.617  0.00  0.00     0.001 A 
ATOM     22  C1  <0> d          53.359  53.964  38.601  0.00  0.00     0.000 A 
ATOM     23  C6  <0> d          53.772  52.883  39.359  0.00  0.00     0.001 A 
ATOM     24  C5  <0> d          53.225  51.633  39.136  0.00  0.00     0.010 A 
ATOM     25  N3  <0> d          51.084  50.070  36.556  0.00  0.00    -0.062 N 
ATOM     26  H14 <0> d          50.457  49.273  36.469  0.00  0.00     0.275 HD
ATOM     27  H15 <0> d          50.564  50.930  36.388  0.00  0.00     0.275 HD
ATOM     28  H16 <0> d          51.830  49.988  35.856  0.00  0.00     0.275 HD
ENDMDL
MODEL 5
REMARK VINA RESULT:      -8.3      3.823      5.373
ATOM      1  C8  <0> d          51.004  48.307  44.577  0.00  0.00     0.253 C 
ATOM      2  O1  <0> d          51.230  49.467  44.848  0.00  0.00    -0.271 OA
ATOM      3  N1  <0> d          49.743  47.837  44.632  0.00  0.00    -0.344 N 
ATOM      4  H9  <0> d          49.561  46.909  44.415  0.00  0.00     0.163 HD
ATOM      5  C9  <0> d          48.645  48.725  45.022  0.00  0.00     0.200 C 
ATOM      6  C15 <0> d          47.335  48.020  45.248  0.00  0.00     0.250 C 
ATOM      7  N2  <0> d          46.681  48.856  44.464  0.00  0.00    -0.302 N 
ATOM      8  O2  <0> d          47.008  47.052  45.902  0.00  0.00    -0.271 OA
ATOM      9  C10 <0> d          47.931  49.372  43.855  0.00  0.00     0.125 C 
ATOM     10  C14 <0> d          45.379  49.333  44.187  0.00  0.00     0.133 C 
ATOM     11  C11 <0> d          47.818  50.906  43.885  0.00  0.00     0.034 C 
ATOM     12  C12 <0> d          46.539  51.303  43.145  0.00  0.00     0.056 C 
ATOM     13  C13 <0> d          45.332  50.524  43.565  0.00  0.00     0.045 C 
ATOM     14 Cl1  <0> d          43.770  51.198  43.217  0.00  0.00    -0.086 Cl
ATOM     15  C16 <0> d          44.167  48.583  44.550  0.00  0.00     0.228 C 
ATOM     16  O3  <0> d          43.692  48.696  45.662  0.00  0.00    -0.643 OA
ATOM     17  O4  <0> d          43.582  47.772  43.646  0.00  0.00    -0.643 OA
ATOM     18  C7  <0> d          52.133  47.394  44.175  0.00  0.00     0.307 C 
ATOM     19  C4  <0> d          51.953  46.977  42.738  0.00  0.00    -0.019 A 
ATOM     20  C3  <0> d          52.223  47.871  41.719  0.00  0.00     0.010 A 
ATOM     21  C2  <0> d          52.058  47.487  40.400  0.00  0.00     0.001 A 
ATOM     22  C1  <0> d          51.624  46.210  40.102  0.00  0.00     0.000 A 
ATOM     23  C6  <0> d          51.356  45.315  41.121  0.00  0.00     0.001 A 
ATOM     24  C5  <0> d          51.525  45.697  42.439  0.00  0.00     0.010 A 
ATOM     25  N3  <0> d          52.149  46.190  45.024  0.00  0.00    -0.062 N 
ATOM     26  H14 <0> d          52.936  45.595  44.771  0.00  0.00     0.275 HD
ATOM     27  H15 <0> d          52.225  46.455  46.004  0.00  0.00     0.275 HD
ATOM     28  H16 <0> d          51.276  45.668  44.885  0.00  0.00     0.275 HD
ENDMDL
MODEL 6
REMARK VINA RESULT:      -8.3      3.357      8.206
ATOM      1  C8  <0> d          50.619  46.954  45.063  0.00  0.00     0.253 C 
ATOM      2  O1  <0> d          51.678  46.367  45.126  0.00  0.00    -0.271 OA
ATOM      3  N1  <0> d          50.269  47.589  43.927  0.00  0.00    -0.344 N 
ATOM      4  H9  <0> d          49.422  48.058  43.875  0.00  0.00     0.163 HD
ATOM      5  C9  <0> d          51.169  47.573  42.770  0.00  0.00     0.200 C 
ATOM      6  C15 <0> d          51.036  48.774  41.873  0.00  0.00     0.250 C 
ATOM      7  N2  <0> d          50.916  48.027  40.791  0.00  0.00    -0.302 N 
ATOM      8  O2  <0> d          51.039  49.970  42.071  0.00  0.00    -0.271 OA
ATOM      9  C10 <0> d          50.630  46.805  41.581  0.00  0.00     0.125 C 
ATOM     10  C14 <0> d          51.048  48.078  39.385  0.00  0.00     0.133 C 
ATOM     11  C11 <0> d          51.538  45.704  41.008  0.00  0.00     0.034 C 
ATOM     12  C12 <0> d          51.244  45.577  39.512  0.00  0.00     0.056 C 
ATOM     13  C13 <0> d          51.222  46.886  38.788  0.00  0.00     0.045 C 
ATOM     14 Cl1  <0> d          51.426  46.863  37.063  0.00  0.00    -0.086 Cl
ATOM     15  C16 <0> d          50.995  49.339  38.630  0.00  0.00     0.228 C 
ATOM     16  O3  <0> d          52.008  49.988  38.458  0.00  0.00    -0.643 OA
ATOM     17  O4  <0> d          49.823  49.774  38.126  0.00  0.00    -0.643 OA
ATOM     18  C7  <0> d          49.694  46.970  46.251  0.00  0.00     0.307 C 
ATOM     19  C4  <0> d          48.584  45.975  46.036  0.00  0.00    -0.019 A 
ATOM     20  C3  <0> d          47.268  46.354  46.229  0.00  0.00     0.010 A 
ATOM     21  C2  <0> d          46.250  45.439  46.031  0.00  0.00     0.001 A 
ATOM     22  C1  <0> d          46.546  44.148  45.639  0.00  0.00     0.000 A 
ATOM     23  C6  <0> d          47.862  43.770  45.445  0.00  0.00     0.001 A 
ATOM     24  C5  <0> d          48.880  44.685  45.638  0.00  0.00     0.010 A 
ATOM     25  N3  <0> d          49.108  48.310  46.430  0.00  0.00    -0.062 N 
ATOM     26  H14 <0> d          49.382  48.693  47.333  0.00  0.00     0.275 HD
ATOM     27  H15 <0> d          49.425  48.932  45.688  0.00  0.00     0.275 HD
ATOM     28  H16 <0> d          48.085  48.238  46.393  0.00  0.00     0.275 HD
ENDMDL
MODEL 7
REMARK VINA RESULT:      -8.2      3.288      3.984
ATOM      1  C8  <0> d          50.753  49.647  39.349  0.00  0.00     0.253 C 
ATOM      2  O1  <0> d          49.720  49.358  38.786  0.00  0.00    -0.271 OA
ATOM      3  N1  <0> d          50.760  49.844  40.682  0.00  0.00    -0.344 N 
ATOM      4  H9  <0> d          51.587  50.075  41.134  0.00  0.00     0.163 HD
ATOM      5  C9  <0> d          49.519  49.713  41.450  0.00  0.00     0.200 C 
ATOM      6  C15 <0> d          48.749  50.998  41.594  0.00  0.00     0.250 C 
ATOM      7  N2  <0> d          48.641  50.856  42.903  0.00  0.00    -0.302 N 
ATOM      8  O2  <0> d          48.371  51.840  40.808  0.00  0.00    -0.271 OA
ATOM      9  C10 <0> d          49.706  49.825  42.948  0.00  0.00     0.125 C 
ATOM     10  C14 <0> d          47.875  51.288  44.009  0.00  0.00     0.133 C 
ATOM     11  C11 <0> d          49.146  48.671  43.797  0.00  0.00     0.034 C 
ATOM     12  C12 <0> d          48.748  49.234  45.162  0.00  0.00     0.056 C 
ATOM     13  C13 <0> d          47.926  50.482  45.084  0.00  0.00     0.045 C 
ATOM     14 Cl1  <0> d          46.985  50.923  46.475  0.00  0.00    -0.086 Cl
ATOM     15  C16 <0> d          47.081  52.526  43.987  0.00  0.00     0.228 C 
ATOM     16  O3  <0> d          47.613  53.593  44.226  0.00  0.00    -0.643 OA
ATOM     17  O4  <0> d          45.766  52.478  43.700  0.00  0.00    -0.643 OA
ATOM     18  C7  <0> d          52.030  49.781  38.561  0.00  0.00     0.307 C 
ATOM     19  C4  <0> d          52.464  51.224  38.551  0.00  0.00    -0.019 A 
ATOM     20  C3  <0> d          51.836  52.130  37.717  0.00  0.00     0.010 A 
ATOM     21  C2  <0> d          52.235  53.454  37.709  0.00  0.00     0.001 A 
ATOM     22  C1  <0> d          53.259  53.873  38.535  0.00  0.00     0.000 A 
ATOM     23  C6  <0> d          53.886  52.967  39.371  0.00  0.00     0.001 A 
ATOM     24  C5  <0> d          53.485  51.644  39.383  0.00  0.00     0.010 A 
ATOM     25  N3  <0> d          51.827  49.333  37.171  0.00  0.00    -0.062 N 
ATOM     26  H14 <0> d          51.600  50.129  36.578  0.00  0.00     0.275 HD
ATOM     27  H15 <0> d          52.670  48.880  36.824  0.00  0.00     0.275 HD
ATOM     28  H16 <0> d          51.050  48.663  37.144  0.00  0.00     0.275 HD
ENDMDL
MODEL 8
REMARK VINA RESULT:      -8.2      2.801      3.642
ATOM      1  C8  <0> d          50.700  47.548  38.881  0.00  0.00     0.253 C 
ATOM      2  O1  <0> d          49.527  47.491  38.578  0.00  0.00    -0.271 OA
ATOM      3  N1  <0> d          51.056  47.640  40.178  0.00  0.00    -0.344 N 
ATOM      4  H9  <0> d          51.994  47.684  40.421  0.00  0.00     0.163 HD
ATOM      5  C9  <0> d          50.027  47.675  41.220  0.00  0.00     0.200 C 
ATOM      6  C15 <0> d          49.955  48.979  41.967  0.00  0.00     0.250 C 
ATOM      7  N2  <0> d          50.001  48.378  43.142  0.00  0.00    -0.302 N 
ATOM      8  O2  <0> d          49.882  50.139  41.620  0.00  0.00    -0.271 OA
ATOM      9  C10 <0> d          50.476  47.104  42.549  0.00  0.00     0.125 C 
ATOM     10  C14 <0> d          49.697  48.580  44.507  0.00  0.00     0.133 C 
ATOM     11  C11 <0> d          49.595  45.998  43.153  0.00  0.00     0.034 C 
ATOM     12  C12 <0> d          49.714  46.074  44.676  0.00  0.00     0.056 C 
ATOM     13  C13 <0> d          49.546  47.455  45.227  0.00  0.00     0.045 C 
ATOM     14 Cl1  <0> d          49.137  47.615  46.907  0.00  0.00    -0.086 Cl
ATOM     15  C16 <0> d          49.558  49.921  45.097  0.00  0.00     0.228 C 
ATOM     16  O3  <0> d          48.465  50.448  45.160  0.00  0.00    -0.643 OA
ATOM     17  O4  <0> d          50.645  50.563  45.571  0.00  0.00    -0.643 OA
ATOM     18  C7  <0> d          51.758  47.511  37.809  0.00  0.00     0.307 C 
ATOM     19  C4  <0> d          51.603  48.710  36.910  0.00  0.00    -0.019 A 
ATOM     20  C3  <0> d          51.860  49.978  37.397  0.00  0.00     0.010 A 
ATOM     21  C2  <0> d          51.717  51.078  36.571  0.00  0.00     0.001 A 
ATOM     22  C1  <0> d          51.320  50.910  35.259  0.00  0.00     0.000 A 
ATOM     23  C6  <0> d          51.064  49.642  34.771  0.00  0.00     0.001 A 
ATOM     24  C5  <0> d          51.211  48.542  35.595  0.00  0.00     0.010 A 
ATOM     25  N3  <0> d          51.629  46.286  37.000  0.00  0.00    -0.062 N 
ATOM     26  H14 <0> d          51.934  45.478  37.539  0.00  0.00     0.275 HD
ATOM     27  H15 <0> d          50.660  46.157  36.714  0.00  0.00     0.275 HD
ATOM     28  H16 <0> d          52.216  46.372  36.163  0.00  0.00     0.275 HD
ENDMDL
MODEL 9
REMARK VINA RESULT:      -8.1      3.821      8.093
ATOM      1  C8  <0> d          52.191  47.571  42.801  0.00  0.00     0.253 C 
ATOM      2  O1  <0> d          53.132  46.850  42.546  0.00  0.00    -0.271 OA
ATOM      3  N1  <0> d          51.537  48.200  41.805  0.00  0.00    -0.344 N 
ATOM      4  H9  <0> d          50.783  48.777  42.007  0.00  0.00     0.163 HD
ATOM      5  C9  <0> d          51.964  48.016  40.415  0.00  0.00     0.200 C 
ATOM      6  C15 <0> d          51.837  49.252  39.566  0.00  0.00     0.250 C 
ATOM      7  N2  <0> d          51.184  48.606  38.618  0.00  0.00    -0.302 N 
ATOM      8  O2  <0> d          52.199  50.401  39.702  0.00  0.00    -0.271 OA
ATOM      9  C10 <0> d          50.889  47.456  39.509  0.00  0.00     0.125 C 
ATOM     10  C14 <0> d          50.845  48.685  37.248  0.00  0.00     0.133 C 
ATOM     11  C11 <0> d          51.254  46.194  38.710  0.00  0.00     0.034 C 
ATOM     12  C12 <0> d          50.455  46.209  37.406  0.00  0.00     0.056 C 
ATOM     13  C13 <0> d          50.512  47.515  36.677  0.00  0.00     0.045 C 
ATOM     14 Cl1  <0> d          50.115  47.519  34.987  0.00  0.00    -0.086 Cl
ATOM     15  C16 <0> d          50.853  49.953  36.503  0.00  0.00     0.228 C 
ATOM     16  O3  <0> d          51.897  50.396  36.067  0.00  0.00    -0.643 OA
ATOM     17  O4  <0> d          49.701  50.623  36.302  0.00  0.00    -0.643 OA
ATOM     18  C7  <0> d          51.751  47.760  44.229  0.00  0.00     0.307 C 
ATOM     19  C4  <0> d          50.639  46.792  44.543  0.00  0.00    -0.019 A 
ATOM     20  C3  <0> d          50.286  46.546  45.857  0.00  0.00     0.010 A 
ATOM     21  C2  <0> d          49.265  45.658  46.144  0.00  0.00     0.001 A 
ATOM     22  C1  <0> d          48.597  45.018  45.119  0.00  0.00     0.000 A 
ATOM     23  C6  <0> d          48.949  45.265  43.805  0.00  0.00     0.001 A 
ATOM     24  C5  <0> d          49.966  46.156  43.517  0.00  0.00     0.010 A 
ATOM     25  N3  <0> d          51.263  49.134  44.441  0.00  0.00    -0.062 N 
ATOM     26  H14 <0> d          50.673  49.171  45.270  0.00  0.00     0.275 HD
ATOM     27  H15 <0> d          52.050  49.770  44.556  0.00  0.00     0.275 HD
ATOM     28  H16 <0> d          50.713  49.425  43.625  0.00  0.00     0.275 HD
ENDMDL
MODEL 10
REMARK VINA RESULT:      -8.1      3.188      7.835
ATOM      1  C8  <0> d          49.806  46.079  43.692  0.00  0.00     0.253 C 
ATOM      2  O1  <0> d          50.934  45.901  44.102  0.00  0.00    -0.271 OA
ATOM      3  N1  <0> d          49.610  46.601  42.466  0.00  0.00    -0.344 N 
ATOM      4  H9  <0> d          48.709  46.743  42.137  0.00  0.00     0.163 HD
ATOM      5  C9  <0> d          50.759  46.957  41.627  0.00  0.00     0.200 C 
ATOM      6  C15 <0> d          51.127  48.415  41.678  0.00  0.00     0.250 C 
ATOM      7  N2  <0> d          51.141  48.518  40.361  0.00  0.00    -0.302 N 
ATOM      8  O2  <0> d          51.333  49.195  42.583  0.00  0.00    -0.271 OA
ATOM      9  C10 <0> d          50.403  47.244  40.184  0.00  0.00     0.125 C 
ATOM     10  C14 <0> d          51.648  49.321  39.314  0.00  0.00     0.133 C 
ATOM     11  C11 <0> d          51.174  46.449  39.117  0.00  0.00     0.034 C 
ATOM     12  C12 <0> d          51.266  47.311  37.857  0.00  0.00     0.056 C 
ATOM     13  C13 <0> d          51.715  48.715  38.117  0.00  0.00     0.045 C 
ATOM     14 Cl1  <0> d          52.358  49.622  36.782  0.00  0.00    -0.086 Cl
ATOM     15  C16 <0> d          52.066  50.716  39.519  0.00  0.00     0.228 C 
ATOM     16  O3  <0> d          51.261  51.618  39.391  0.00  0.00    -0.643 OA
ATOM     17  O4  <0> d          53.343  50.994  39.850  0.00  0.00    -0.643 OA
ATOM     18  C7  <0> d          48.625  45.714  44.554  0.00  0.00     0.307 C 
ATOM     19  C4  <0> d          48.319  46.851  45.494  0.00  0.00    -0.019 A 
ATOM     20  C3  <0> d          48.985  46.950  46.701  0.00  0.00     0.010 A 
ATOM     21  C2  <0> d          48.703  47.995  47.562  0.00  0.00     0.001 A 
ATOM     22  C1  <0> d          47.757  48.940  47.216  0.00  0.00     0.000 A 
ATOM     23  C6  <0> d          47.092  48.842  46.008  0.00  0.00     0.001 A 
ATOM     24  C5  <0> d          47.377  47.801  45.144  0.00  0.00     0.010 A 
ATOM     25  N3  <0> d          48.919  44.506  45.345  0.00  0.00    -0.062 N 
ATOM     26  H14 <0> d          49.209  44.767  46.285  0.00  0.00     0.275 HD
ATOM     27  H15 <0> d          48.093  43.913  45.397  0.00  0.00     0.275 HD
ATOM     28  H16 <0> d          49.678  43.984  44.893  0.00  0.00     0.275 HD
ENDMDL
