MODEL 1
REMARK VINA RESULT:      -9.4      0.000      0.000
ATOM      1  C1  <0> d          51.822  49.402  40.370  0.00  0.00     0.019 A 
ATOM      2  C2  <0> d          52.179  48.646  41.462  0.00  0.00     0.030 A 
ATOM      3  C3  <0> d          52.198  47.256  41.373  0.00  0.00     0.028 A 
ATOM      4  C4  <0> d          51.854  46.628  40.180  0.00  0.00     0.030 A 
ATOM      5  C5  <0> d          51.495  47.379  39.084  0.00  0.00     0.019 A 
ATOM      6  C6  <0> d          51.476  48.774  39.170  0.00  0.00     0.032 A 
ATOM      7  N2  <0> d          52.560  46.495  42.479  0.00  0.00    -0.384 N 
ATOM      8  H12 <0> d          52.941  45.612  42.356  0.00  0.00     0.160 HD
ATOM      9  C13 <0> d          52.363  47.027  43.830  0.00  0.00     0.180 C 
ATOM     10  C14 <0> d          50.922  46.853  44.234  0.00  0.00     0.070 A 
ATOM     11  N4  <0> d          50.493  47.371  45.366  0.00  0.00    -0.241 NA
ATOM     12  C17 <0> d          49.223  47.220  45.718  0.00  0.00     0.174 A 
ATOM     13  C16 <0> d          48.337  46.497  44.885  0.00  0.00     0.202 A 
ATOM     14  C18 <0> d          48.692  47.784  46.970  0.00  0.00     0.292 A 
ATOM     15  N3  <0> d          48.790  45.975  43.745  0.00  0.00    -0.237 NA
ATOM     16  N6  <0> d          47.054  46.352  45.262  0.00  0.00    -0.043 NA
ATOM     17  C15 <0> d          50.056  46.140  43.410  0.00  0.00     0.147 A 
ATOM     18  C19 <0> d          46.601  46.863  46.381  0.00  0.00     0.703 A 
ATOM     19  N5  <0> d          47.383  47.573  47.244  0.00  0.00    -0.152 N 
ATOM     20  H2  <0> d          46.986  47.942  48.086  0.00  0.00     0.187 HD
ATOM     21  O4  <0> d          49.402  48.416  47.730  0.00  0.00    -0.265 OA
ATOM     22  N7  <0> d          45.281  46.674  46.698  0.00  0.00    -0.233 N 
ATOM     23  H16 <0> d          44.942  46.972  47.556  0.00  0.00     0.174 HD
ATOM     24  H17 <0> d          44.687  46.244  46.065  0.00  0.00     0.174 HD
ATOM     25  C7  <0> d          51.098  49.582  37.995  0.00  0.00     0.252 C 
ATOM     26  O1  <0> d          50.976  49.053  36.907  0.00  0.00    -0.268 OA
ATOM     27  N1  <0> d          50.887  50.907  38.128  0.00  0.00    -0.342 N 
ATOM     28  H7  <0> d          50.985  51.329  38.996  0.00  0.00     0.163 HD
ATOM     29  C8  <0> d          50.511  51.710  36.961  0.00  0.00     0.186 C 
ATOM     30  C9  <0> d          51.690  52.590  36.546  0.00  0.00     0.046 C 
ATOM     31  C10 <0> d          51.770  53.805  37.472  0.00  0.00     0.116 C 
ATOM     32  C11 <0> d          53.032  53.730  38.291  0.00  0.00     0.172 C 
ATOM     33  O2  <0> d          53.848  54.619  38.228  0.00  0.00    -0.648 OA
ATOM     34  O5  <0> d          53.253  52.673  39.091  0.00  0.00    -0.648 OA
ATOM     35  C12 <0> d          49.331  52.582  37.311  0.00  0.00     0.196 C 
ATOM     36  O3  <0> d          48.836  53.294  36.471  0.00  0.00    -0.646 OA
ATOM     37  O6  <0> d          48.832  52.566  38.556  0.00  0.00    -0.646 OA
ENDMDL
MODEL 2
REMARK VINA RESULT:      -9.4      1.406      2.561
ATOM      1  C1  <0> d          51.653  48.196  39.462  0.00  0.00     0.019 A 
ATOM      2  C2  <0> d          52.220  47.656  40.592  0.00  0.00     0.030 A 
ATOM      3  C3  <0> d          51.983  48.233  41.837  0.00  0.00     0.028 A 
ATOM      4  C4  <0> d          51.173  49.360  41.941  0.00  0.00     0.030 A 
ATOM      5  C5  <0> d          50.603  49.906  40.813  0.00  0.00     0.019 A 
ATOM      6  C6  <0> d          50.838  49.327  39.563  0.00  0.00     0.032 A 
ATOM      7  N2  <0> d          52.559  47.685  42.977  0.00  0.00    -0.384 N 
ATOM      8  H12 <0> d          53.189  48.204  43.500  0.00  0.00     0.160 HD
ATOM      9  C13 <0> d          52.212  46.322  43.389  0.00  0.00     0.180 C 
ATOM     10  C14 <0> d          50.785  46.291  43.872  0.00  0.00     0.070 A 
ATOM     11  N4  <0> d          50.478  46.816  45.040  0.00  0.00    -0.241 NA
ATOM     12  C17 <0> d          49.221  46.791  45.461  0.00  0.00     0.174 A 
ATOM     13  C16 <0> d          48.217  46.193  44.664  0.00  0.00     0.202 A 
ATOM     14  C18 <0> d          48.824  47.369  46.757  0.00  0.00     0.292 A 
ATOM     15  N3  <0> d          48.547  45.661  43.486  0.00  0.00    -0.237 NA
ATOM     16  N6  <0> d          46.948  46.175  45.112  0.00  0.00    -0.043 NA
ATOM     17  C15 <0> d          49.803  45.701  43.083  0.00  0.00     0.147 A 
ATOM     18  C19 <0> d          46.617  46.696  46.267  0.00  0.00     0.703 A 
ATOM     19  N5  <0> d          47.517  47.291  47.101  0.00  0.00    -0.152 N 
ATOM     20  H2  <0> d          47.210  47.673  47.973  0.00  0.00     0.187 HD
ATOM     21  O4  <0> d          49.640  47.898  47.489  0.00  0.00    -0.265 OA
ATOM     22  N7  <0> d          45.304  46.639  46.656  0.00  0.00    -0.233 N 
ATOM     23  H16 <0> d          45.077  46.367  47.558  0.00  0.00     0.174 HD
ATOM     24  H17 <0> d          44.602  46.873  46.030  0.00  0.00     0.174 HD
ATOM     25  C7  <0> d          50.223  49.907  38.353  0.00  0.00     0.252 C 
ATOM     26  O1  <0> d          49.113  49.552  38.006  0.00  0.00    -0.268 OA
ATOM     27  N1  <0> d          50.892  50.829  37.633  0.00  0.00    -0.342 N 
ATOM     28  H7  <0> d          51.778  51.112  37.911  0.00  0.00     0.163 HD
ATOM     29  C8  <0> d          50.282  51.405  36.432  0.00  0.00     0.186 C 
ATOM     30  C9  <0> d          51.224  51.218  35.242  0.00  0.00     0.046 C 
ATOM     31  C10 <0> d          50.766  50.017  34.413  0.00  0.00     0.116 C 
ATOM     32  C11 <0> d          51.209  48.744  35.087  0.00  0.00     0.172 C 
ATOM     33  O2  <0> d          52.301  48.680  35.600  0.00  0.00    -0.648 OA
ATOM     34  O5  <0> d          50.390  47.680  35.118  0.00  0.00    -0.648 OA
ATOM     35  C12 <0> d          50.033  52.876  36.651  0.00  0.00     0.196 C 
ATOM     36  O3  <0> d          50.956  53.613  36.904  0.00  0.00    -0.646 OA
ATOM     37  O6  <0> d          48.787  53.366  36.566  0.00  0.00    -0.646 OA
ENDMDL
MODEL 3
REMARK VINA RESULT:      -9.4      3.049      8.868
ATOM      1  C1  <0> d          52.039  47.688  40.517  0.00  0.00     0.019 A 
ATOM      2  C2  <0> d          52.189  48.020  39.192  0.00  0.00     0.030 A 
ATOM      3  C3  <0> d          51.774  47.136  38.199  0.00  0.00     0.028 A 
ATOM      4  C4  <0> d          51.206  45.914  38.547  0.00  0.00     0.030 A 
ATOM      5  C5  <0> d          51.054  45.575  39.872  0.00  0.00     0.019 A 
ATOM      6  C6  <0> d          51.469  46.461  40.870  0.00  0.00     0.032 A 
ATOM      7  N2  <0> d          51.927  47.474  36.860  0.00  0.00    -0.384 N 
ATOM      8  H12 <0> d          52.814  47.525  36.471  0.00  0.00     0.160 HD
ATOM      9  C13 <0> d          50.748  47.754  36.036  0.00  0.00     0.180 C 
ATOM     10  C14 <0> d          50.279  49.163  36.292  0.00  0.00     0.070 A 
ATOM     11  N4  <0> d          49.723  49.468  37.446  0.00  0.00    -0.241 NA
ATOM     12  C17 <0> d          49.316  50.710  37.671  0.00  0.00     0.174 A 
ATOM     13  C16 <0> d          49.468  51.699  36.670  0.00  0.00     0.202 A 
ATOM     14  C18 <0> d          48.693  51.104  38.946  0.00  0.00     0.292 A 
ATOM     15  N3  <0> d          50.029  51.371  35.506  0.00  0.00    -0.237 NA
ATOM     16  N6  <0> d          49.044  52.952  36.918  0.00  0.00    -0.043 NA
ATOM     17  C15 <0> d          50.432  50.131  35.304  0.00  0.00     0.147 A 
ATOM     18  C19 <0> d          48.493  53.281  38.060  0.00  0.00     0.703 A 
ATOM     19  N5  <0> d          48.305  52.394  39.079  0.00  0.00    -0.152 N 
ATOM     20  H2  <0> d          47.879  52.699  39.931  0.00  0.00     0.187 HD
ATOM     21  O4  <0> d          48.533  50.301  39.846  0.00  0.00    -0.265 OA
ATOM     22  N7  <0> d          48.085  54.578  38.238  0.00  0.00    -0.233 N 
ATOM     23  H16 <0> d          47.314  54.914  37.758  0.00  0.00     0.174 HD
ATOM     24  H17 <0> d          48.568  55.159  38.846  0.00  0.00     0.174 HD
ATOM     25  C7  <0> d          51.302  46.104  42.292  0.00  0.00     0.252 C 
ATOM     26  O1  <0> d          52.056  45.305  42.811  0.00  0.00    -0.268 OA
ATOM     27  N1  <0> d          50.312  46.665  43.015  0.00  0.00    -0.342 N 
ATOM     28  H7  <0> d          49.710  47.303  42.601  0.00  0.00     0.163 HD
ATOM     29  C8  <0> d          50.145  46.311  44.427  0.00  0.00     0.186 C 
ATOM     30  C9  <0> d          48.706  45.856  44.673  0.00  0.00     0.046 C 
ATOM     31  C10 <0> d          48.385  44.667  43.766  0.00  0.00     0.116 C 
ATOM     32  C11 <0> d          47.521  43.685  44.512  0.00  0.00     0.172 C 
ATOM     33  O2  <0> d          46.365  43.533  44.195  0.00  0.00    -0.648 OA
ATOM     34  O5  <0> d          48.034  42.977  45.532  0.00  0.00    -0.648 OA
ATOM     35  C12 <0> d          50.446  47.514  45.286  0.00  0.00     0.196 C 
ATOM     36  O3  <0> d          51.188  48.376  44.878  0.00  0.00    -0.646 OA
ATOM     37  O6  <0> d          49.891  47.625  46.502  0.00  0.00    -0.646 OA
ENDMDL
MODEL 4
REMARK VINA RESULT:      -9.3      1.668      2.755
ATOM      1  C1  <0> d          51.506  46.876  39.848  0.00  0.00     0.019 A 
ATOM      2  C2  <0> d          51.629  46.126  40.993  0.00  0.00     0.030 A 
ATOM      3  C3  <0> d          52.067  46.720  42.173  0.00  0.00     0.028 A 
ATOM      4  C4  <0> d          52.383  48.075  42.197  0.00  0.00     0.030 A 
ATOM      5  C5  <0> d          52.262  48.832  41.053  0.00  0.00     0.019 A 
ATOM      6  C6  <0> d          51.821  48.238  39.867  0.00  0.00     0.032 A 
ATOM      7  N2  <0> d          52.192  45.959  43.329  0.00  0.00    -0.384 N 
ATOM      8  H12 <0> d          52.406  45.015  43.268  0.00  0.00     0.160 HD
ATOM      9  C13 <0> d          51.998  46.582  44.641  0.00  0.00     0.180 C 
ATOM     10  C14 <0> d          50.525  46.662  44.948  0.00  0.00     0.070 A 
ATOM     11  N4  <0> d          50.103  47.424  45.935  0.00  0.00    -0.241 NA
ATOM     12  C17 <0> d          48.805  47.496  46.201  0.00  0.00     0.174 A 
ATOM     13  C16 <0> d          47.882  46.748  45.433  0.00  0.00     0.202 A 
ATOM     14  C18 <0> d          48.281  48.337  47.290  0.00  0.00     0.292 A 
ATOM     15  N3  <0> d          48.328  45.977  44.441  0.00  0.00    -0.237 NA
ATOM     16  N6  <0> d          46.570  46.832  45.722  0.00  0.00    -0.043 NA
ATOM     17  C15 <0> d          49.622  45.923  44.190  0.00  0.00     0.147 A 
ATOM     18  C19 <0> d          46.124  47.587  46.695  0.00  0.00     0.703 A 
ATOM     19  N5  <0> d          46.941  48.341  47.486  0.00  0.00    -0.152 N 
ATOM     20  H2  <0> d          46.548  48.901  48.216  0.00  0.00     0.187 HD
ATOM     21  O4  <0> d          49.023  49.004  47.986  0.00  0.00    -0.265 OA
ATOM     22  N7  <0> d          44.774  47.622  46.930  0.00  0.00    -0.233 N 
ATOM     23  H16 <0> d          44.221  48.276  46.478  0.00  0.00     0.174 HD
ATOM     24  H17 <0> d          44.373  46.990  47.546  0.00  0.00     0.174 HD
ATOM     25  C7  <0> d          51.685  49.047  38.642  0.00  0.00     0.252 C 
ATOM     26  O1  <0> d          52.217  50.138  38.571  0.00  0.00    -0.268 OA
ATOM     27  N1  <0> d          50.970  48.577  37.600  0.00  0.00    -0.342 N 
ATOM     28  H7  <0> d          50.545  47.707  37.656  0.00  0.00     0.163 HD
ATOM     29  C8  <0> d          50.834  49.381  36.382  0.00  0.00     0.186 C 
ATOM     30  C9  <0> d          49.530  50.178  36.440  0.00  0.00     0.046 C 
ATOM     31  C10 <0> d          49.795  51.621  36.006  0.00  0.00     0.116 C 
ATOM     32  C11 <0> d          49.274  52.565  37.058  0.00  0.00     0.172 C 
ATOM     33  O2  <0> d          48.841  53.647  36.738  0.00  0.00    -0.648 OA
ATOM     34  O5  <0> d          49.292  52.207  38.352  0.00  0.00    -0.648 OA
ATOM     35  C12 <0> d          50.814  48.471  35.180  0.00  0.00     0.196 C 
ATOM     36  O3  <0> d          50.179  47.445  35.209  0.00  0.00    -0.646 OA
ATOM     37  O6  <0> d          51.504  48.802  34.077  0.00  0.00    -0.646 OA
ENDMDL
MODEL 5
REMARK VINA RESULT:      -9.3      1.934      2.652
ATOM      1  C1  <0> d          50.596  47.073  39.703  0.00  0.00     0.019 A 
ATOM      2  C2  <0> d          51.114  46.414  40.793  0.00  0.00     0.030 A 
ATOM      3  C3  <0> d          51.982  47.073  41.660  0.00  0.00     0.028 A 
ATOM      4  C4  <0> d          52.329  48.400  41.424  0.00  0.00     0.030 A 
ATOM      5  C5  <0> d          51.815  49.065  40.334  0.00  0.00     0.019 A 
ATOM      6  C6  <0> d          50.942  48.406  39.463  0.00  0.00     0.032 A 
ATOM      7  N2  <0> d          52.503  46.405  42.761  0.00  0.00    -0.384 N 
ATOM      8  H12 <0> d          52.852  45.505  42.662  0.00  0.00     0.160 HD
ATOM      9  C13 <0> d          52.527  47.059  44.071  0.00  0.00     0.180 C 
ATOM     10  C14 <0> d          51.118  47.210  44.583  0.00  0.00     0.070 A 
ATOM     11  N4  <0> d          50.402  46.138  44.853  0.00  0.00    -0.241 NA
ATOM     12  C17 <0> d          49.163  46.274  45.308  0.00  0.00     0.174 A 
ATOM     13  C16 <0> d          48.612  47.564  45.491  0.00  0.00     0.202 A 
ATOM     14  C18 <0> d          48.323  45.109  45.631  0.00  0.00     0.292 A 
ATOM     15  N3  <0> d          49.350  48.638  45.208  0.00  0.00    -0.237 NA
ATOM     16  N6  <0> d          47.352  47.679  45.950  0.00  0.00    -0.043 NA
ATOM     17  C15 <0> d          50.582  48.482  44.761  0.00  0.00     0.147 A 
ATOM     18  C19 <0> d          46.621  46.628  46.231  0.00  0.00     0.703 A 
ATOM     19  N5  <0> d          47.071  45.348  46.085  0.00  0.00    -0.152 N 
ATOM     20  H2  <0> d          46.470  44.582  46.314  0.00  0.00     0.187 HD
ATOM     21  O4  <0> d          48.738  43.973  45.495  0.00  0.00    -0.265 OA
ATOM     22  N7  <0> d          45.346  46.825  46.694  0.00  0.00    -0.233 N 
ATOM     23  H16 <0> d          45.193  46.989  47.637  0.00  0.00     0.174 HD
ATOM     24  H17 <0> d          44.598  46.801  46.079  0.00  0.00     0.174 HD
ATOM     25  C7  <0> d          50.385  49.117  38.297  0.00  0.00     0.252 C 
ATOM     26  O1  <0> d          49.865  48.491  37.394  0.00  0.00    -0.268 OA
ATOM     27  N1  <0> d          50.452  50.463  38.233  0.00  0.00    -0.342 N 
ATOM     28  H7  <0> d          50.868  50.962  38.953  0.00  0.00     0.163 HD
ATOM     29  C8  <0> d          49.899  51.170  37.075  0.00  0.00     0.186 C 
ATOM     30  C9  <0> d          51.035  51.578  36.136  0.00  0.00     0.046 C 
ATOM     31  C10 <0> d          50.858  50.876  34.788  0.00  0.00     0.116 C 
ATOM     32  C11 <0> d          51.660  49.601  34.777  0.00  0.00     0.172 C 
ATOM     33  O2  <0> d          51.231  48.622  34.214  0.00  0.00    -0.648 OA
ATOM     34  O5  <0> d          52.852  49.550  35.395  0.00  0.00    -0.648 OA
ATOM     35  C12 <0> d          49.165  52.402  37.543  0.00  0.00     0.196 C 
ATOM     36  O3  <0> d          48.897  53.279  36.758  0.00  0.00    -0.646 OA
ATOM     37  O6  <0> d          48.812  52.523  38.832  0.00  0.00    -0.646 OA
ENDMDL
MODEL 6
REMARK VINA RESULT:      -9.2      1.824      2.824
ATOM      1  C1  <0> d          52.241  48.690  40.947  0.00  0.00     0.019 A 
ATOM      2  C2  <0> d          52.313  47.908  42.075  0.00  0.00     0.030 A 
ATOM      3  C3  <0> d          51.931  46.570  42.023  0.00  0.00     0.028 A 
ATOM      4  C4  <0> d          51.474  46.021  40.829  0.00  0.00     0.030 A 
ATOM      5  C5  <0> d          51.398  46.799  39.696  0.00  0.00     0.019 A 
ATOM      6  C6  <0> d          51.783  48.142  39.745  0.00  0.00     0.032 A 
ATOM      7  N2  <0> d          52.004  45.782  43.166  0.00  0.00    -0.384 N 
ATOM      8  H12 <0> d          51.998  44.815  43.090  0.00  0.00     0.160 HD
ATOM      9  C13 <0> d          52.091  46.412  44.486  0.00  0.00     0.180 C 
ATOM     10  C14 <0> d          50.707  46.771  44.963  0.00  0.00     0.070 A 
ATOM     11  N4  <0> d          49.810  45.823  45.141  0.00  0.00    -0.241 NA
ATOM     12  C17 <0> d          48.594  46.141  45.565  0.00  0.00     0.174 A 
ATOM     13  C16 <0> d          48.260  47.493  45.813  0.00  0.00     0.202 A 
ATOM     14  C18 <0> d          47.557  45.119  45.786  0.00  0.00     0.292 A 
ATOM     15  N3  <0> d          49.180  48.440  45.622  0.00  0.00    -0.237 NA
ATOM     16  N6  <0> d          47.020  47.794  46.239  0.00  0.00    -0.043 NA
ATOM     17  C15 <0> d          50.385  48.103  45.204  0.00  0.00     0.147 A 
ATOM     18  C19 <0> d          46.112  46.869  46.430  0.00  0.00     0.703 A 
ATOM     19  N5  <0> d          46.345  45.542  46.216  0.00  0.00    -0.152 N 
ATOM     20  H2  <0> d          45.616  44.877  46.377  0.00  0.00     0.187 HD
ATOM     21  O4  <0> d          47.781  43.939  45.591  0.00  0.00    -0.265 OA
ATOM     22  N7  <0> d          44.870  47.253  46.865  0.00  0.00    -0.233 N 
ATOM     23  H16 <0> d          44.560  48.158  46.709  0.00  0.00     0.174 HD
ATOM     24  H17 <0> d          44.301  46.619  47.327  0.00  0.00     0.174 HD
ATOM     25  C7  <0> d          51.709  48.977  38.531  0.00  0.00     0.252 C 
ATOM     26  O1  <0> d          52.355  50.004  38.460  0.00  0.00    -0.268 OA
ATOM     27  N1  <0> d          50.926  48.600  37.501  0.00  0.00    -0.342 N 
ATOM     28  H7  <0> d          50.410  47.780  37.558  0.00  0.00     0.163 HD
ATOM     29  C8  <0> d          50.853  49.429  36.295  0.00  0.00     0.186 C 
ATOM     30  C9  <0> d          49.592  50.293  36.346  0.00  0.00     0.046 C 
ATOM     31  C10 <0> d          49.926  51.710  35.879  0.00  0.00     0.116 C 
ATOM     32  C11 <0> d          50.241  52.572  37.074  0.00  0.00     0.172 C 
ATOM     33  O2  <0> d          49.844  52.253  38.170  0.00  0.00    -0.648 OA
ATOM     34  O5  <0> d          50.961  53.695  36.923  0.00  0.00    -0.648 OA
ATOM     35  C12 <0> d          50.805  48.540  35.077  0.00  0.00     0.196 C 
ATOM     36  O3  <0> d          51.376  48.871  34.066  0.00  0.00    -0.646 OA
ATOM     37  O6  <0> d          50.127  47.383  35.118  0.00  0.00    -0.646 OA
ENDMDL
MODEL 7
REMARK VINA RESULT:      -8.9      5.659      9.626
ATOM      1  C1  <0> d          46.905  51.138  45.596  0.00  0.00     0.019 A 
ATOM      2  C2  <0> d          45.671  51.680  45.327  0.00  0.00     0.030 A 
ATOM      3  C3  <0> d          44.556  50.854  45.210  0.00  0.00     0.028 A 
ATOM      4  C4  <0> d          44.688  49.478  45.364  0.00  0.00     0.030 A 
ATOM      5  C5  <0> d          45.921  48.929  45.633  0.00  0.00     0.019 A 
ATOM      6  C6  <0> d          47.042  49.755  45.752  0.00  0.00     0.032 A 
ATOM      7  N2  <0> d          43.309  51.406  44.937  0.00  0.00    -0.384 N 
ATOM      8  H12 <0> d          43.228  52.131  44.299  0.00  0.00     0.160 HD
ATOM      9  C13 <0> d          42.117  50.891  45.616  0.00  0.00     0.180 C 
ATOM     10  C14 <0> d          41.151  50.349  44.593  0.00  0.00     0.070 A 
ATOM     11  N4  <0> d          41.393  49.190  44.015  0.00  0.00    -0.241 NA
ATOM     12  C17 <0> d          40.540  48.713  43.119  0.00  0.00     0.174 A 
ATOM     13  C16 <0> d          39.382  49.452  42.778  0.00  0.00     0.202 A 
ATOM     14  C18 <0> d          40.760  47.421  42.448  0.00  0.00     0.292 A 
ATOM     15  N3  <0> d          39.157  50.625  43.369  0.00  0.00    -0.237 NA
ATOM     16  N6  <0> d          38.532  48.951  41.863  0.00  0.00    -0.043 NA
ATOM     17  C15 <0> d          40.015  51.080  44.262  0.00  0.00     0.147 A 
ATOM     18  C19 <0> d          38.747  47.798  41.278  0.00  0.00     0.703 A 
ATOM     19  N5  <0> d          39.835  47.021  41.545  0.00  0.00    -0.152 N 
ATOM     20  H2  <0> d          39.951  46.148  41.069  0.00  0.00     0.187 HD
ATOM     21  O4  <0> d          41.736  46.738  42.697  0.00  0.00    -0.265 OA
ATOM     22  N7  <0> d          37.835  47.354  40.356  0.00  0.00    -0.233 N 
ATOM     23  H16 <0> d          37.390  47.986  39.772  0.00  0.00     0.174 HD
ATOM     24  H17 <0> d          37.637  46.408  40.288  0.00  0.00     0.174 HD
ATOM     25  C7  <0> d          48.363  49.170  46.046  0.00  0.00     0.252 C 
ATOM     26  O1  <0> d          49.075  49.672  46.895  0.00  0.00    -0.268 OA
ATOM     27  N1  <0> d          48.782  48.080  45.373  0.00  0.00    -0.342 N 
ATOM     28  H7  <0> d          48.215  47.680  44.696  0.00  0.00     0.163 HD
ATOM     29  C8  <0> d          50.095  47.498  45.666  0.00  0.00     0.186 C 
ATOM     30  C9  <0> d          50.893  47.362  44.368  0.00  0.00     0.046 C 
ATOM     31  C10 <0> d          50.086  47.952  43.210  0.00  0.00     0.116 C 
ATOM     32  C11 <0> d          49.542  46.836  42.357  0.00  0.00     0.172 C 
ATOM     33  O2  <0> d          48.755  46.047  42.824  0.00  0.00    -0.648 OA
ATOM     34  O5  <0> d          49.930  46.716  41.077  0.00  0.00    -0.648 OA
ATOM     35  C12 <0> d          49.914  46.138  46.290  0.00  0.00     0.196 C 
ATOM     36  O3  <0> d          50.867  45.548  46.740  0.00  0.00    -0.646 OA
ATOM     37  O6  <0> d          48.694  45.582  46.345  0.00  0.00    -0.646 OA
ENDMDL
MODEL 8
REMARK VINA RESULT:      -8.8      5.954     10.067
ATOM      1  C1  <0> d          45.568  48.605  45.100  0.00  0.00     0.019 A 
ATOM      2  C2  <0> d          44.372  49.247  45.317  0.00  0.00     0.030 A 
ATOM      3  C3  <0> d          44.240  50.600  45.014  0.00  0.00     0.028 A 
ATOM      4  C4  <0> d          45.319  51.306  44.491  0.00  0.00     0.030 A 
ATOM      5  C5  <0> d          46.520  50.669  44.272  0.00  0.00     0.019 A 
ATOM      6  C6  <0> d          46.654  49.311  44.574  0.00  0.00     0.032 A 
ATOM      7  N2  <0> d          43.030  51.246  45.235  0.00  0.00    -0.384 N 
ATOM      8  H12 <0> d          42.570  51.139  46.082  0.00  0.00     0.160 HD
ATOM      9  C13 <0> d          42.447  52.089  44.187  0.00  0.00     0.180 C 
ATOM     10  C14 <0> d          41.434  51.293  43.407  0.00  0.00     0.070 A 
ATOM     11  N4  <0> d          41.608  49.998  43.239  0.00  0.00    -0.241 NA
ATOM     12  C17 <0> d          40.712  49.298  42.555  0.00  0.00     0.174 A 
ATOM     13  C16 <0> d          39.582  49.943  42.001  0.00  0.00     0.202 A 
ATOM     14  C18 <0> d          40.857  47.848  42.344  0.00  0.00     0.292 A 
ATOM     15  N3  <0> d          39.425  51.255  42.176  0.00  0.00    -0.237 NA
ATOM     16  N6  <0> d          38.687  49.215  41.307  0.00  0.00    -0.043 NA
ATOM     17  C15 <0> d          40.324  51.932  42.863  0.00  0.00     0.147 A 
ATOM     18  C19 <0> d          38.835  47.925  41.131  0.00  0.00     0.703 A 
ATOM     19  N5  <0> d          39.893  47.222  41.629  0.00  0.00    -0.152 N 
ATOM     20  H2  <0> d          39.957  46.237  41.465  0.00  0.00     0.187 HD
ATOM     21  O4  <0> d          41.807  47.235  42.795  0.00  0.00    -0.265 OA
ATOM     22  N7  <0> d          37.882  47.250  40.413  0.00  0.00    -0.233 N 
ATOM     23  H16 <0> d          37.022  47.663  40.242  0.00  0.00     0.174 HD
ATOM     24  H17 <0> d          38.069  46.361  40.076  0.00  0.00     0.174 HD
ATOM     25  C7  <0> d          47.938  48.625  44.335  0.00  0.00     0.252 C 
ATOM     26  O1  <0> d          48.810  49.174  43.690  0.00  0.00    -0.268 OA
ATOM     27  N1  <0> d          48.143  47.388  44.831  0.00  0.00    -0.342 N 
ATOM     28  H7  <0> d          47.447  46.950  45.345  0.00  0.00     0.163 HD
ATOM     29  C8  <0> d          49.418  46.706  44.593  0.00  0.00     0.186 C 
ATOM     30  C9  <0> d          49.151  45.287  44.087  0.00  0.00     0.046 C 
ATOM     31  C10 <0> d          48.447  44.480  45.180  0.00  0.00     0.116 C 
ATOM     32  C11 <0> d          47.051  44.136  44.729  0.00  0.00     0.172 C 
ATOM     33  O2  <0> d          46.133  44.879  44.983  0.00  0.00    -0.648 OA
ATOM     34  O5  <0> d          46.826  43.002  44.045  0.00  0.00    -0.648 OA
ATOM     35  C12 <0> d          50.200  46.641  45.881  0.00  0.00     0.196 C 
ATOM     36  O3  <0> d          51.288  46.117  45.901  0.00  0.00    -0.646 OA
ATOM     37  O6  <0> d          49.687  47.165  47.004  0.00  0.00    -0.646 OA
ENDMDL
MODEL 9
REMARK VINA RESULT:      -8.5      7.631     11.197
ATOM      1  C1  <0> d          43.136  52.452  45.088  0.00  0.00     0.019 A 
ATOM      2  C2  <0> d          41.857  52.669  45.542  0.00  0.00     0.030 A 
ATOM      3  C3  <0> d          41.073  51.598  45.962  0.00  0.00     0.028 A 
ATOM      4  C4  <0> d          41.581  50.303  45.921  0.00  0.00     0.030 A 
ATOM      5  C5  <0> d          42.861  50.078  45.466  0.00  0.00     0.019 A 
ATOM      6  C6  <0> d          43.651  51.152  45.045  0.00  0.00     0.032 A 
ATOM      7  N2  <0> d          39.780  51.821  46.421  0.00  0.00    -0.384 N 
ATOM      8  H12 <0> d          39.624  52.444  47.147  0.00  0.00     0.160 HD
ATOM      9  C13 <0> d          38.653  51.114  45.807  0.00  0.00     0.180 C 
ATOM     10  C14 <0> d          38.592  51.445  44.338  0.00  0.00     0.070 A 
ATOM     11  N4  <0> d          38.875  50.517  43.447  0.00  0.00    -0.241 NA
ATOM     12  C17 <0> d          38.816  50.809  42.154  0.00  0.00     0.174 A 
ATOM     13  C16 <0> d          38.462  52.114  41.737  0.00  0.00     0.202 A 
ATOM     14  C18 <0> d          39.117  49.808  41.117  0.00  0.00     0.292 A 
ATOM     15  N3  <0> d          38.184  53.041  42.654  0.00  0.00    -0.237 NA
ATOM     16  N6  <0> d          38.412  52.390  40.421  0.00  0.00    -0.043 NA
ATOM     17  C15 <0> d          38.243  52.729  43.934  0.00  0.00     0.147 A 
ATOM     18  C19 <0> d          38.683  51.483  39.515  0.00  0.00     0.703 A 
ATOM     19  N5  <0> d          39.034  50.202  39.825  0.00  0.00    -0.152 N 
ATOM     20  H2  <0> d          39.231  49.549  39.093  0.00  0.00     0.187 HD
ATOM     21  O4  <0> d          39.428  48.668  41.411  0.00  0.00    -0.265 OA
ATOM     22  N7  <0> d          38.612  51.839  38.193  0.00  0.00    -0.233 N 
ATOM     23  H16 <0> d          38.173  52.664  37.936  0.00  0.00     0.174 HD
ATOM     24  H17 <0> d          39.001  51.267  37.515  0.00  0.00     0.174 HD
ATOM     25  C7  <0> d          45.024  50.915  44.563  0.00  0.00     0.252 C 
ATOM     26  O1  <0> d          45.208  50.329  43.514  0.00  0.00    -0.268 OA
ATOM     27  N1  <0> d          46.077  51.349  45.287  0.00  0.00    -0.342 N 
ATOM     28  H7  <0> d          45.930  51.815  46.124  0.00  0.00     0.163 HD
ATOM     29  C8  <0> d          47.441  51.113  44.808  0.00  0.00     0.186 C 
ATOM     30  C9  <0> d          48.394  51.030  46.002  0.00  0.00     0.046 C 
ATOM     31  C10 <0> d          47.644  50.474  47.213  0.00  0.00     0.116 C 
ATOM     32  C11 <0> d          48.541  49.528  47.968  0.00  0.00     0.172 C 
ATOM     33  O2  <0> d          49.241  49.941  48.862  0.00  0.00    -0.648 OA
ATOM     34  O5  <0> d          48.566  48.224  47.647  0.00  0.00    -0.648 OA
ATOM     35  C12 <0> d          47.860  52.249  43.908  0.00  0.00     0.196 C 
ATOM     36  O3  <0> d          48.496  52.024  42.907  0.00  0.00    -0.646 OA
ATOM     37  O6  <0> d          47.527  53.511  44.222  0.00  0.00    -0.646 OA
ENDMDL
MODEL 10
REMARK VINA RESULT:      -8.5      6.829     11.018
ATOM      1  C1  <0> d          45.390  51.140  44.627  0.00  0.00     0.019 A 
ATOM      2  C2  <0> d          44.170  51.694  44.935  0.00  0.00     0.030 A 
ATOM      3  C3  <0> d          43.107  50.878  45.313  0.00  0.00     0.028 A 
ATOM      4  C4  <0> d          43.276  49.498  45.378  0.00  0.00     0.030 A 
ATOM      5  C5  <0> d          44.494  48.937  45.070  0.00  0.00     0.019 A 
ATOM      6  C6  <0> d          45.563  49.754  44.691  0.00  0.00     0.032 A 
ATOM      7  N2  <0> d          41.876  51.442  45.625  0.00  0.00    -0.384 N 
ATOM      8  H12 <0> d          41.501  51.330  46.512  0.00  0.00     0.160 HD
ATOM      9  C13 <0> d          41.142  52.204  44.611  0.00  0.00     0.180 C 
ATOM     10  C14 <0> d          39.961  51.399  44.133  0.00  0.00     0.070 A 
ATOM     11  N4  <0> d          39.720  51.295  42.843  0.00  0.00    -0.241 NA
ATOM     12  C17 <0> d          38.683  50.581  42.424  0.00  0.00     0.174 A 
ATOM     13  C16 <0> d          37.835  49.946  43.361  0.00  0.00     0.202 A 
ATOM     14  C18 <0> d          38.373  50.429  40.993  0.00  0.00     0.292 A 
ATOM     15  N3  <0> d          38.091  50.067  44.664  0.00  0.00    -0.237 NA
ATOM     16  N6  <0> d          36.786  49.231  42.915  0.00  0.00    -0.043 NA
ATOM     17  C15 <0> d          39.131  50.777  45.060  0.00  0.00     0.147 A 
ATOM     18  C19 <0> d          36.528  49.107  41.636  0.00  0.00     0.703 A 
ATOM     19  N5  <0> d          37.291  49.685  40.664  0.00  0.00    -0.152 N 
ATOM     20  H2  <0> d          37.049  49.558  39.702  0.00  0.00     0.187 HD
ATOM     21  O4  <0> d          39.064  50.950  40.137  0.00  0.00    -0.265 OA
ATOM     22  N7  <0> d          35.441  48.362  41.258  0.00  0.00    -0.233 N 
ATOM     23  H16 <0> d          34.784  48.095  41.918  0.00  0.00     0.174 HD
ATOM     24  H17 <0> d          35.329  48.105  40.331  0.00  0.00     0.174 HD
ATOM     25  C7  <0> d          46.872  49.156  44.366  0.00  0.00     0.252 C 
ATOM     26  O1  <0> d          47.570  49.653  43.504  0.00  0.00    -0.268 OA
ATOM     27  N1  <0> d          47.293  48.057  45.024  0.00  0.00    -0.342 N 
ATOM     28  H7  <0> d          46.735  47.660  45.711  0.00  0.00     0.163 HD
ATOM     29  C8  <0> d          48.592  47.462  44.701  0.00  0.00     0.186 C 
ATOM     30  C9  <0> d          48.482  45.938  44.750  0.00  0.00     0.046 C 
ATOM     31  C10 <0> d          47.245  45.542  45.558  0.00  0.00     0.116 C 
ATOM     32  C11 <0> d          46.918  44.094  45.299  0.00  0.00     0.172 C 
ATOM     33  O2  <0> d          47.646  43.226  45.717  0.00  0.00    -0.648 OA
ATOM     34  O5  <0> d          45.818  43.768  44.601  0.00  0.00    -0.648 OA
ATOM     35  C12 <0> d          49.619  47.925  45.704  0.00  0.00     0.196 C 
ATOM     36  O3  <0> d          50.427  48.768  45.396  0.00  0.00    -0.646 OA
ATOM     37  O6  <0> d          49.635  47.399  46.938  0.00  0.00    -0.646 OA
ENDMDL
MODEL 1
REMARK VINA RESULT:      -9.6      0.000      0.000
ATOM      1  C1  <0> d          51.604  47.639  38.927  0.00  0.00     0.019 A 
ATOM      2  C2  <0> d          51.656  46.696  39.928  0.00  0.00     0.030 A 
ATOM      3  C3  <0> d          52.030  47.065  41.217  0.00  0.00     0.028 A 
ATOM      4  C4  <0> d          52.353  48.390  41.498  0.00  0.00     0.030 A 
ATOM      5  C5  <0> d          52.304  49.338  40.502  0.00  0.00     0.019 A 
ATOM      6  C6  <0> d          51.928  48.971  39.207  0.00  0.00     0.032 A 
ATOM      7  N2  <0> d          52.080  46.110  42.225  0.00  0.00    -0.384 N 
ATOM      8  H12 <0> d          52.150  45.169  41.998  0.00  0.00     0.160 HD
ATOM      9  C13 <0> d          52.031  46.523  43.630  0.00  0.00     0.180 C 
ATOM     10  C14 <0> d          50.601  46.520  44.105  0.00  0.00     0.070 A 
ATOM     11  N4  <0> d          50.288  47.109  45.241  0.00  0.00    -0.241 NA
ATOM     12  C17 <0> d          49.028  47.110  45.655  0.00  0.00     0.174 A 
ATOM     13  C16 <0> d          48.028  46.469  44.885  0.00  0.00     0.202 A 
ATOM     14  C18 <0> d          48.625  47.759  46.913  0.00  0.00     0.292 A 
ATOM     15  N3  <0> d          48.365  45.874  43.741  0.00  0.00    -0.237 NA
ATOM     16  N6  <0> d          46.756  46.479  45.325  0.00  0.00    -0.043 NA
ATOM     17  C15 <0> d          49.622  45.890  43.343  0.00  0.00     0.147 A 
ATOM     18  C19 <0> d          46.419  47.063  46.449  0.00  0.00     0.703 A 
ATOM     19  N5  <0> d          47.316  47.701  47.255  0.00  0.00    -0.152 N 
ATOM     20  H2  <0> d          47.004  48.132  48.102  0.00  0.00     0.187 HD
ATOM     21  O4  <0> d          49.437  48.325  47.621  0.00  0.00    -0.265 OA
ATOM     22  N7  <0> d          45.104  47.030  46.834  0.00  0.00    -0.233 N 
ATOM     23  H16 <0> d          44.622  47.858  46.980  0.00  0.00     0.174 HD
ATOM     24  H17 <0> d          44.656  46.180  46.958  0.00  0.00     0.174 HD
ATOM     25  C7  <0> d          51.868  49.987  38.139  0.00  0.00     0.252 C 
ATOM     26  O1  <0> d          52.575  49.879  37.156  0.00  0.00    -0.268 OA
ATOM     27  N1  <0> d          51.029  51.036  38.254  0.00  0.00    -0.342 N 
ATOM     28  H7  <0> d          50.465  51.122  39.039  0.00  0.00     0.163 HD
ATOM     29  C8  <0> d          50.969  52.046  37.193  0.00  0.00     0.186 C 
ATOM     30  C9  <0> d          51.193  53.433  37.797  0.00  0.00     0.046 C 
ATOM     31  C10 <0> d          52.550  53.974  37.343  0.00  0.00     0.116 C 
ATOM     32  C11 <0> d          53.500  53.995  38.513  0.00  0.00     0.172 C 
ATOM     33  O2  <0> d          54.194  54.963  38.710  0.00  0.00    -0.648 OA
ATOM     34  O5  <0> d          53.575  52.936  39.335  0.00  0.00    -0.648 OA
ATOM     35  C12 <0> d          49.616  51.998  36.532  0.00  0.00     0.196 C 
ATOM     36  O3  <0> d          49.056  53.025  36.227  0.00  0.00    -0.646 OA
ATOM     37  O6  <0> d          49.032  50.815  36.282  0.00  0.00    -0.646 OA
ENDMDL
MODEL 2
REMARK VINA RESULT:      -9.4      2.142      2.885
ATOM      1  C1  <0> d          51.458  46.775  39.757  0.00  0.00     0.019 A 
ATOM      2  C2  <0> d          51.551  46.003  40.893  0.00  0.00     0.030 A 
ATOM      3  C3  <0> d          51.964  46.573  42.093  0.00  0.00     0.028 A 
ATOM      4  C4  <0> d          52.286  47.926  42.150  0.00  0.00     0.030 A 
ATOM      5  C5  <0> d          52.196  48.704  41.018  0.00  0.00     0.019 A 
ATOM      6  C6  <0> d          51.780  48.135  39.811  0.00  0.00     0.032 A 
ATOM      7  N2  <0> d          52.056  45.790  43.237  0.00  0.00    -0.384 N 
ATOM      8  H12 <0> d          52.077  44.823  43.163  0.00  0.00     0.160 HD
ATOM      9  C13 <0> d          52.123  46.424  44.557  0.00  0.00     0.180 C 
ATOM     10  C14 <0> d          50.733  46.783  45.014  0.00  0.00     0.070 A 
ATOM     11  N4  <0> d          49.836  45.834  45.185  0.00  0.00    -0.241 NA
ATOM     12  C17 <0> d          48.614  46.151  45.593  0.00  0.00     0.174 A 
ATOM     13  C16 <0> d          48.275  47.505  45.830  0.00  0.00     0.202 A 
ATOM     14  C18 <0> d          47.577  45.129  45.806  0.00  0.00     0.292 A 
ATOM     15  N3  <0> d          49.194  48.451  45.646  0.00  0.00    -0.237 NA
ATOM     16  N6  <0> d          47.028  47.805  46.240  0.00  0.00    -0.043 NA
ATOM     17  C15 <0> d          50.405  48.116  45.246  0.00  0.00     0.147 A 
ATOM     18  C19 <0> d          46.119  46.879  46.423  0.00  0.00     0.703 A 
ATOM     19  N5  <0> d          46.358  45.552  46.218  0.00  0.00    -0.152 N 
ATOM     20  H2  <0> d          45.628  44.886  46.374  0.00  0.00     0.187 HD
ATOM     21  O4  <0> d          47.805  43.948  45.619  0.00  0.00    -0.265 OA
ATOM     22  N7  <0> d          44.872  47.261  46.840  0.00  0.00    -0.233 N 
ATOM     23  H16 <0> d          44.252  47.660  46.210  0.00  0.00     0.174 HD
ATOM     24  H17 <0> d          44.608  47.131  47.764  0.00  0.00     0.174 HD
ATOM     25  C7  <0> d          51.677  48.968  38.598  0.00  0.00     0.252 C 
ATOM     26  O1  <0> d          52.256  50.035  38.542  0.00  0.00    -0.268 OA
ATOM     27  N1  <0> d          50.939  48.545  37.552  0.00  0.00    -0.342 N 
ATOM     28  H7  <0> d          50.477  47.693  37.597  0.00  0.00     0.163 HD
ATOM     29  C8  <0> d          50.835  49.373  36.347  0.00  0.00     0.186 C 
ATOM     30  C9  <0> d          49.537  50.180  36.392  0.00  0.00     0.046 C 
ATOM     31  C10 <0> d          49.825  51.633  36.010  0.00  0.00     0.116 C 
ATOM     32  C11 <0> d          49.354  52.545  37.112  0.00  0.00     0.172 C 
ATOM     33  O2  <0> d          49.433  52.193  38.264  0.00  0.00    -0.648 OA
ATOM     34  O5  <0> d          48.843  53.751  36.812  0.00  0.00    -0.648 OA
ATOM     35  C12 <0> d          50.833  48.486  35.128  0.00  0.00     0.196 C 
ATOM     36  O3  <0> d          51.444  48.816  34.140  0.00  0.00    -0.646 OA
ATOM     37  O6  <0> d          50.151  47.329  35.141  0.00  0.00    -0.646 OA
ENDMDL
MODEL 3
REMARK VINA RESULT:      -9.4      2.177      2.831
ATOM      1  C1  <0> d          50.814  46.930  39.575  0.00  0.00     0.019 A 
ATOM      2  C2  <0> d          51.300  46.262  40.676  0.00  0.00     0.030 A 
ATOM      3  C3  <0> d          51.993  46.955  41.664  0.00  0.00     0.028 A 
ATOM      4  C4  <0> d          52.198  48.326  41.542  0.00  0.00     0.030 A 
ATOM      5  C5  <0> d          51.716  49.001  40.443  0.00  0.00     0.019 A 
ATOM      6  C6  <0> d          51.019  48.308  39.449  0.00  0.00     0.032 A 
ATOM      7  N2  <0> d          52.481  46.277  42.774  0.00  0.00    -0.384 N 
ATOM      8  H12 <0> d          52.802  45.365  42.684  0.00  0.00     0.160 HD
ATOM      9  C13 <0> d          52.514  46.938  44.081  0.00  0.00     0.180 C 
ATOM     10  C14 <0> d          51.108  47.106  44.596  0.00  0.00     0.070 A 
ATOM     11  N4  <0> d          50.376  46.042  44.859  0.00  0.00    -0.241 NA
ATOM     12  C17 <0> d          49.140  46.193  45.316  0.00  0.00     0.174 A 
ATOM     13  C16 <0> d          48.607  47.490  45.509  0.00  0.00     0.202 A 
ATOM     14  C18 <0> d          48.284  45.038  45.632  0.00  0.00     0.292 A 
ATOM     15  N3  <0> d          49.361  48.554  45.232  0.00  0.00    -0.237 NA
ATOM     16  N6  <0> d          47.350  47.620  45.971  0.00  0.00    -0.043 NA
ATOM     17  C15 <0> d          50.589  48.384  44.784  0.00  0.00     0.147 A 
ATOM     18  C19 <0> d          46.604  46.577  46.245  0.00  0.00     0.703 A 
ATOM     19  N5  <0> d          47.035  45.292  46.088  0.00  0.00    -0.152 N 
ATOM     20  H2  <0> d          46.424  44.533  46.314  0.00  0.00     0.187 HD
ATOM     21  O4  <0> d          48.682  43.897  45.487  0.00  0.00    -0.265 OA
ATOM     22  N7  <0> d          45.333  46.787  46.711  0.00  0.00    -0.233 N 
ATOM     23  H16 <0> d          44.972  46.218  47.408  0.00  0.00     0.174 HD
ATOM     24  H17 <0> d          44.795  47.505  46.344  0.00  0.00     0.174 HD
ATOM     25  C7  <0> d          50.495  49.029  38.274  0.00  0.00     0.252 C 
ATOM     26  O1  <0> d          49.971  48.414  37.366  0.00  0.00    -0.268 OA
ATOM     27  N1  <0> d          50.599  50.372  38.207  0.00  0.00    -0.342 N 
ATOM     28  H7  <0> d          51.016  50.863  38.932  0.00  0.00     0.163 HD
ATOM     29  C8  <0> d          50.078  51.089  37.040  0.00  0.00     0.186 C 
ATOM     30  C9  <0> d          51.246  51.576  36.179  0.00  0.00     0.046 C 
ATOM     31  C10 <0> d          51.148  50.952  34.786  0.00  0.00     0.116 C 
ATOM     32  C11 <0> d          51.828  49.608  34.788  0.00  0.00     0.172 C 
ATOM     33  O2  <0> d          51.342  48.683  34.180  0.00  0.00    -0.648 OA
ATOM     34  O5  <0> d          52.973  49.436  35.469  0.00  0.00    -0.648 OA
ATOM     35  C12 <0> d          49.265  52.272  37.499  0.00  0.00     0.196 C 
ATOM     36  O3  <0> d          48.942  52.369  38.659  0.00  0.00    -0.646 OA
ATOM     37  O6  <0> d          48.900  53.218  36.619  0.00  0.00    -0.646 OA
ENDMDL
MODEL 4
REMARK VINA RESULT:      -9.4      1.600      2.491
ATOM      1  C1  <0> d          52.238  49.095  40.907  0.00  0.00     0.019 A 
ATOM      2  C2  <0> d          52.274  48.202  41.952  0.00  0.00     0.030 A 
ATOM      3  C3  <0> d          52.091  46.842  41.716  0.00  0.00     0.028 A 
ATOM      4  C4  <0> d          51.872  46.382  40.421  0.00  0.00     0.030 A 
ATOM      5  C5  <0> d          51.835  47.269  39.370  0.00  0.00     0.019 A 
ATOM      6  C6  <0> d          52.018  48.635  39.604  0.00  0.00     0.032 A 
ATOM      7  N2  <0> d          52.129  45.943  42.775  0.00  0.00    -0.384 N 
ATOM      8  H12 <0> d          52.239  44.995  42.603  0.00  0.00     0.160 HD
ATOM      9  C13 <0> d          52.004  46.428  44.153  0.00  0.00     0.180 C 
ATOM     10  C14 <0> d          50.547  46.518  44.525  0.00  0.00     0.070 A 
ATOM     11  N4  <0> d          50.192  47.131  45.635  0.00  0.00    -0.241 NA
ATOM     12  C17 <0> d          48.908  47.214  45.958  0.00  0.00     0.174 A 
ATOM     13  C16 <0> d          47.927  46.635  45.119  0.00  0.00     0.202 A 
ATOM     14  C18 <0> d          48.459  47.893  47.184  0.00  0.00     0.292 A 
ATOM     15  N3  <0> d          48.306  46.014  44.002  0.00  0.00    -0.237 NA
ATOM     16  N6  <0> d          46.630  46.727  45.467  0.00  0.00    -0.043 NA
ATOM     17  C15 <0> d          49.586  45.948  43.695  0.00  0.00     0.147 A 
ATOM     18  C19 <0> d          46.251  47.337  46.563  0.00  0.00     0.703 A 
ATOM     19  N5  <0> d          47.127  47.921  47.431  0.00  0.00    -0.152 N 
ATOM     20  H2  <0> d          46.784  48.374  48.254  0.00  0.00     0.187 HD
ATOM     21  O4  <0> d          49.252  48.410  47.948  0.00  0.00    -0.265 OA
ATOM     22  N7  <0> d          44.913  47.390  46.853  0.00  0.00    -0.233 N 
ATOM     23  H16 <0> d          44.362  46.600  46.742  0.00  0.00     0.174 HD
ATOM     24  H17 <0> d          44.517  48.216  47.169  0.00  0.00     0.174 HD
ATOM     25  C7  <0> d          51.985  49.588  38.478  0.00  0.00     0.252 C 
ATOM     26  O1  <0> d          52.492  50.687  38.597  0.00  0.00    -0.268 OA
ATOM     27  N1  <0> d          51.391  49.240  37.319  0.00  0.00    -0.342 N 
ATOM     28  H7  <0> d          50.987  48.364  37.225  0.00  0.00     0.163 HD
ATOM     29  C8  <0> d          51.358  50.187  36.200  0.00  0.00     0.186 C 
ATOM     30  C9  <0> d          49.907  50.557  35.888  0.00  0.00     0.046 C 
ATOM     31  C10 <0> d          49.320  51.352  37.055  0.00  0.00     0.116 C 
ATOM     32  C11 <0> d          49.573  52.821  36.840  0.00  0.00     0.172 C 
ATOM     33  O2  <0> d          48.643  53.581  36.706  0.00  0.00    -0.648 OA
ATOM     34  O5  <0> d          50.832  53.286  36.794  0.00  0.00    -0.648 OA
ATOM     35  C12 <0> d          51.987  49.552  34.987  0.00  0.00     0.196 C 
ATOM     36  O3  <0> d          53.190  49.522  34.876  0.00  0.00    -0.646 OA
ATOM     37  O6  <0> d          51.211  49.021  34.029  0.00  0.00    -0.646 OA
ENDMDL
MODEL 5
REMARK VINA RESULT:      -9.2      3.115      8.892
ATOM      1  C1  <0> d          51.779  47.950  42.561  0.00  0.00     0.019 A 
ATOM      2  C2  <0> d          52.147  48.135  41.248  0.00  0.00     0.030 A 
ATOM      3  C3  <0> d          51.985  47.106  40.325  0.00  0.00     0.028 A 
ATOM      4  C4  <0> d          51.452  45.885  40.728  0.00  0.00     0.030 A 
ATOM      5  C5  <0> d          51.083  45.692  42.039  0.00  0.00     0.019 A 
ATOM      6  C6  <0> d          51.243  46.724  42.968  0.00  0.00     0.032 A 
ATOM      7  N2  <0> d          52.357  47.298  39.000  0.00  0.00    -0.384 N 
ATOM      8  H12 <0> d          53.293  47.406  38.770  0.00  0.00     0.160 HD
ATOM      9  C13 <0> d          51.336  47.333  37.950  0.00  0.00     0.180 C 
ATOM     10  C14 <0> d          50.779  48.728  37.837  0.00  0.00     0.070 A 
ATOM     11  N4  <0> d          49.961  49.183  38.764  0.00  0.00    -0.241 NA
ATOM     12  C17 <0> d          49.475  50.414  38.665  0.00  0.00     0.174 A 
ATOM     13  C16 <0> d          49.825  51.228  37.562  0.00  0.00     0.202 A 
ATOM     14  C18 <0> d          48.564  50.972  39.677  0.00  0.00     0.292 A 
ATOM     15  N3  <0> d          50.650  50.748  36.631  0.00  0.00    -0.237 NA
ATOM     16  N6  <0> d          49.319  52.472  37.478  0.00  0.00    -0.043 NA
ATOM     17  C15 <0> d          51.127  49.525  36.750  0.00  0.00     0.147 A 
ATOM     18  C19 <0> d          48.508  52.950  38.391  0.00  0.00     0.703 A 
ATOM     19  N5  <0> d          48.117  52.236  39.486  0.00  0.00    -0.152 N 
ATOM     20  H2  <0> d          47.496  52.649  40.152  0.00  0.00     0.187 HD
ATOM     21  O4  <0> d          48.224  50.323  40.649  0.00  0.00    -0.265 OA
ATOM     22  N7  <0> d          48.031  54.225  38.239  0.00  0.00    -0.233 N 
ATOM     23  H16 <0> d          48.512  54.858  37.684  0.00  0.00     0.174 HD
ATOM     24  H17 <0> d          47.213  54.493  38.684  0.00  0.00     0.174 HD
ATOM     25  C7  <0> d          50.842  46.522  44.374  0.00  0.00     0.252 C 
ATOM     26  O1  <0> d          51.651  46.116  45.185  0.00  0.00    -0.268 OA
ATOM     27  N1  <0> d          49.577  46.788  44.757  0.00  0.00    -0.342 N 
ATOM     28  H7  <0> d          48.932  47.112  44.110  0.00  0.00     0.163 HD
ATOM     29  C8  <0> d          49.178  46.587  46.153  0.00  0.00     0.186 C 
ATOM     30  C9  <0> d          47.910  45.733  46.203  0.00  0.00     0.046 C 
ATOM     31  C10 <0> d          48.218  44.331  45.678  0.00  0.00     0.116 C 
ATOM     32  C11 <0> d          47.555  44.139  44.338  0.00  0.00     0.172 C 
ATOM     33  O2  <0> d          48.066  44.590  43.341  0.00  0.00    -0.648 OA
ATOM     34  O5  <0> d          46.395  43.468  44.254  0.00  0.00    -0.648 OA
ATOM     35  C12 <0> d          48.910  47.924  46.795  0.00  0.00     0.196 C 
ATOM     36  O3  <0> d          48.342  48.790  46.172  0.00  0.00    -0.646 OA
ATOM     37  O6  <0> d          49.303  48.154  48.058  0.00  0.00    -0.646 OA
ENDMDL
MODEL 6
REMARK VINA RESULT:      -9.1      3.271      9.028
ATOM      1  C1  <0> d          50.952  45.537  39.807  0.00  0.00     0.019 A 
ATOM      2  C2  <0> d          51.108  45.858  38.478  0.00  0.00     0.030 A 
ATOM      3  C3  <0> d          51.726  47.051  38.116  0.00  0.00     0.028 A 
ATOM      4  C4  <0> d          52.188  47.924  39.096  0.00  0.00     0.030 A 
ATOM      5  C5  <0> d          52.035  47.610  40.427  0.00  0.00     0.019 A 
ATOM      6  C6  <0> d          51.415  46.413  40.795  0.00  0.00     0.032 A 
ATOM      7  N2  <0> d          51.883  47.370  36.772  0.00  0.00    -0.384 N 
ATOM      8  H12 <0> d          52.769  47.391  36.379  0.00  0.00     0.160 HD
ATOM      9  C13 <0> d          50.709  47.674  35.950  0.00  0.00     0.180 C 
ATOM     10  C14 <0> d          50.261  49.088  36.214  0.00  0.00     0.070 A 
ATOM     11  N4  <0> d          49.723  49.397  37.376  0.00  0.00    -0.241 NA
ATOM     12  C17 <0> d          49.334  50.644  37.608  0.00  0.00     0.174 A 
ATOM     13  C16 <0> d          49.485  51.632  36.607  0.00  0.00     0.202 A 
ATOM     14  C18 <0> d          48.733  51.043  38.891  0.00  0.00     0.292 A 
ATOM     15  N3  <0> d          50.027  51.299  35.435  0.00  0.00    -0.237 NA
ATOM     16  N6  <0> d          49.080  52.891  36.862  0.00  0.00    -0.043 NA
ATOM     17  C15 <0> d          50.413  50.056  35.226  0.00  0.00     0.147 A 
ATOM     18  C19 <0> d          48.548  53.225  38.012  0.00  0.00     0.703 A 
ATOM     19  N5  <0> d          48.363  52.338  39.032  0.00  0.00    -0.152 N 
ATOM     20  H2  <0> d          47.952  52.647  39.890  0.00  0.00     0.187 HD
ATOM     21  O4  <0> d          48.575  50.241  39.792  0.00  0.00    -0.265 OA
ATOM     22  N7  <0> d          48.158  54.525  38.199  0.00  0.00    -0.233 N 
ATOM     23  H16 <0> d          47.642  54.768  38.982  0.00  0.00     0.174 HD
ATOM     24  H17 <0> d          48.400  55.202  37.548  0.00  0.00     0.174 HD
ATOM     25  C7  <0> d          51.255  46.071  42.221  0.00  0.00     0.252 C 
ATOM     26  O1  <0> d          52.049  45.326  42.761  0.00  0.00    -0.268 OA
ATOM     27  N1  <0> d          50.227  46.586  42.926  0.00  0.00    -0.342 N 
ATOM     28  H7  <0> d          49.593  47.181  42.495  0.00  0.00     0.163 HD
ATOM     29  C8  <0> d          50.067  46.246  44.342  0.00  0.00     0.186 C 
ATOM     30  C9  <0> d          48.596  45.946  44.632  0.00  0.00     0.046 C 
ATOM     31  C10 <0> d          48.491  44.682  45.487  0.00  0.00     0.116 C 
ATOM     32  C11 <0> d          47.285  43.886  45.062  0.00  0.00     0.172 C 
ATOM     33  O2  <0> d          46.540  43.428  45.895  0.00  0.00    -0.648 OA
ATOM     34  O5  <0> d          47.040  43.683  43.758  0.00  0.00    -0.648 OA
ATOM     35  C12 <0> d          50.520  47.407  45.190  0.00  0.00     0.196 C 
ATOM     36  O3  <0> d          50.032  47.585  46.281  0.00  0.00    -0.646 OA
ATOM     37  O6  <0> d          51.464  48.244  44.732  0.00  0.00    -0.646 OA
ENDMDL
MODEL 7
REMARK VINA RESULT:      -9.0      2.126      3.118
ATOM      1  C1  <0> d          50.595  47.609  39.299  0.00  0.00     0.019 A 
ATOM      2  C2  <0> d          51.249  46.939  40.307  0.00  0.00     0.030 A 
ATOM      3  C3  <0> d          52.105  47.628  41.162  0.00  0.00     0.028 A 
ATOM      4  C4  <0> d          52.303  48.996  40.998  0.00  0.00     0.030 A 
ATOM      5  C5  <0> d          51.653  49.672  39.991  0.00  0.00     0.019 A 
ATOM      6  C6  <0> d          50.792  48.984  39.132  0.00  0.00     0.032 A 
ATOM      7  N2  <0> d          52.764  46.948  42.179  0.00  0.00    -0.384 N 
ATOM      8  H12 <0> d          53.024  46.022  42.055  0.00  0.00     0.160 HD
ATOM      9  C13 <0> d          53.068  47.631  43.439  0.00  0.00     0.180 C 
ATOM     10  C14 <0> d          51.829  47.685  44.295  0.00  0.00     0.070 A 
ATOM     11  N4  <0> d          51.253  48.845  44.539  0.00  0.00    -0.241 NA
ATOM     12  C17 <0> d          50.159  48.889  45.288  0.00  0.00     0.174 A 
ATOM     13  C16 <0> d          49.623  47.698  45.832  0.00  0.00     0.202 A 
ATOM     14  C18 <0> d          49.473  50.157  45.585  0.00  0.00     0.292 A 
ATOM     15  N3  <0> d          50.223  46.535  45.579  0.00  0.00    -0.237 NA
ATOM     16  N6  <0> d          48.515  47.765  46.593  0.00  0.00    -0.043 NA
ATOM     17  C15 <0> d          51.306  46.510  44.826  0.00  0.00     0.147 A 
ATOM     18  C19 <0> d          47.919  48.906  46.845  0.00  0.00     0.703 A 
ATOM     19  N5  <0> d          48.367  50.101  46.364  0.00  0.00    -0.152 N 
ATOM     20  H2  <0> d          47.874  50.942  46.587  0.00  0.00     0.187 HD
ATOM     21  O4  <0> d          49.884  51.216  45.148  0.00  0.00    -0.265 OA
ATOM     22  N7  <0> d          46.796  48.897  47.629  0.00  0.00    -0.233 N 
ATOM     23  H16 <0> d          45.951  49.210  47.268  0.00  0.00     0.174 HD
ATOM     24  H17 <0> d          46.844  48.577  48.542  0.00  0.00     0.174 HD
ATOM     25  C7  <0> d          50.088  49.707  38.056  0.00  0.00     0.252 C 
ATOM     26  O1  <0> d          48.933  49.433  37.793  0.00  0.00    -0.268 OA
ATOM     27  N1  <0> d          50.727  50.672  37.364  0.00  0.00    -0.342 N 
ATOM     28  H7  <0> d          51.648  50.890  37.574  0.00  0.00     0.163 HD
ATOM     29  C8  <0> d          50.028  51.390  36.295  0.00  0.00     0.186 C 
ATOM     30  C9  <0> d          50.919  51.450  35.053  0.00  0.00     0.046 C 
ATOM     31  C10 <0> d          50.661  50.221  34.180  0.00  0.00     0.116 C 
ATOM     32  C11 <0> d          51.282  49.008  34.823  0.00  0.00     0.172 C 
ATOM     33  O2  <0> d          50.643  47.989  34.936  0.00  0.00    -0.648 OA
ATOM     34  O5  <0> d          52.547  49.060  35.272  0.00  0.00    -0.648 OA
ATOM     35  C12 <0> d          49.713  52.790  36.754  0.00  0.00     0.196 C 
ATOM     36  O3  <0> d          48.570  53.108  36.985  0.00  0.00    -0.646 OA
ATOM     37  O6  <0> d          50.702  53.685  36.906  0.00  0.00    -0.646 OA
ENDMDL
MODEL 8
REMARK VINA RESULT:      -9.0      5.707     10.032
ATOM      1  C1  <0> d          46.598  50.511  43.519  0.00  0.00     0.019 A 
ATOM      2  C2  <0> d          45.454  51.255  43.697  0.00  0.00     0.030 A 
ATOM      3  C3  <0> d          44.521  50.881  44.660  0.00  0.00     0.028 A 
ATOM      4  C4  <0> d          44.741  49.753  45.445  0.00  0.00     0.030 A 
ATOM      5  C5  <0> d          45.883  49.004  45.272  0.00  0.00     0.019 A 
ATOM      6  C6  <0> d          46.822  49.377  44.306  0.00  0.00     0.032 A 
ATOM      7  N2  <0> d          43.368  51.635  44.838  0.00  0.00    -0.384 N 
ATOM      8  H12 <0> d          43.329  52.547  44.509  0.00  0.00     0.160 HD
ATOM      9  C13 <0> d          42.209  51.053  45.519  0.00  0.00     0.180 C 
ATOM     10  C14 <0> d          41.254  50.491  44.498  0.00  0.00     0.070 A 
ATOM     11  N4  <0> d          41.462  49.290  43.999  0.00  0.00    -0.241 NA
ATOM     12  C17 <0> d          40.618  48.795  43.104  0.00  0.00     0.174 A 
ATOM     13  C16 <0> d          39.506  49.561  42.679  0.00  0.00     0.202 A 
ATOM     14  C18 <0> d          40.801  47.456  42.521  0.00  0.00     0.292 A 
ATOM     15  N3  <0> d          39.315  50.776  43.191  0.00  0.00    -0.237 NA
ATOM     16  N6  <0> d          38.663  49.042  41.767  0.00  0.00    -0.043 NA
ATOM     17  C15 <0> d          40.162  51.248  44.084  0.00  0.00     0.147 A 
ATOM     18  C19 <0> d          38.845  47.846  41.260  0.00  0.00     0.703 A 
ATOM     19  N5  <0> d          39.889  47.041  41.610  0.00  0.00    -0.152 N 
ATOM     20  H2  <0> d          39.980  46.137  41.193  0.00  0.00     0.187 HD
ATOM     21  O4  <0> d          41.737  46.749  42.844  0.00  0.00    -0.265 OA
ATOM     22  N7  <0> d          37.946  47.385  40.335  0.00  0.00    -0.233 N 
ATOM     23  H16 <0> d          37.180  47.927  40.093  0.00  0.00     0.174 HD
ATOM     24  H17 <0> d          38.077  46.518  39.922  0.00  0.00     0.174 HD
ATOM     25  C7  <0> d          48.050  48.579  44.123  0.00  0.00     0.252 C 
ATOM     26  O1  <0> d          48.971  49.023  43.466  0.00  0.00    -0.268 OA
ATOM     27  N1  <0> d          48.148  47.357  44.684  0.00  0.00    -0.342 N 
ATOM     28  H7  <0> d          47.413  47.003  45.208  0.00  0.00     0.163 HD
ATOM     29  C8  <0> d          49.368  46.564  44.501  0.00  0.00     0.186 C 
ATOM     30  C9  <0> d          48.992  45.112  44.202  0.00  0.00     0.046 C 
ATOM     31  C10 <0> d          48.456  44.452  45.473  0.00  0.00     0.116 C 
ATOM     32  C11 <0> d          46.950  44.473  45.454  0.00  0.00     0.172 C 
ATOM     33  O2  <0> d          46.348  45.270  46.132  0.00  0.00    -0.648 OA
ATOM     34  O5  <0> d          46.276  43.603  44.684  0.00  0.00    -0.648 OA
ATOM     35  C12 <0> d          50.195  46.620  45.760  0.00  0.00     0.196 C 
ATOM     36  O3  <0> d          51.296  46.123  45.782  0.00  0.00    -0.646 OA
ATOM     37  O6  <0> d          49.708  47.222  46.857  0.00  0.00    -0.646 OA
ENDMDL
MODEL 9
REMARK VINA RESULT:      -8.9      2.398      9.271
ATOM      1  C1  <0> d          51.684  47.567  44.554  0.00  0.00     0.019 A 
ATOM      2  C2  <0> d          52.373  47.442  43.370  0.00  0.00     0.030 A 
ATOM      3  C3  <0> d          51.792  46.784  42.290  0.00  0.00     0.028 A 
ATOM      4  C4  <0> d          50.512  46.248  42.404  0.00  0.00     0.030 A 
ATOM      5  C5  <0> d          49.817  46.369  43.586  0.00  0.00     0.019 A 
ATOM      6  C6  <0> d          50.397  47.030  44.672  0.00  0.00     0.032 A 
ATOM      7  N2  <0> d          52.491  46.660  41.095  0.00  0.00    -0.384 N 
ATOM      8  H12 <0> d          53.459  46.737  41.089  0.00  0.00     0.160 HD
ATOM      9  C13 <0> d          51.768  46.412  39.845  0.00  0.00     0.180 C 
ATOM     10  C14 <0> d          51.772  47.663  39.004  0.00  0.00     0.070 A 
ATOM     11  N4  <0> d          51.746  48.843  39.589  0.00  0.00    -0.241 NA
ATOM     12  C17 <0> d          51.755  49.943  38.846  0.00  0.00     0.174 A 
ATOM     13  C16 <0> d          51.779  49.846  37.435  0.00  0.00     0.202 A 
ATOM     14  C18 <0> d          51.734  51.285  39.449  0.00  0.00     0.292 A 
ATOM     15  N3  <0> d          51.800  48.642  36.862  0.00  0.00    -0.237 NA
ATOM     16  N6  <0> d          51.784  50.974  36.701  0.00  0.00    -0.043 NA
ATOM     17  C15 <0> d          51.797  47.561  37.617  0.00  0.00     0.147 A 
ATOM     18  C19 <0> d          51.765  52.160  37.258  0.00  0.00     0.703 A 
ATOM     19  N5  <0> d          51.739  52.348  38.609  0.00  0.00    -0.152 N 
ATOM     20  H2  <0> d          51.726  53.276  38.981  0.00  0.00     0.187 HD
ATOM     21  O4  <0> d          51.712  51.437  40.656  0.00  0.00    -0.265 OA
ATOM     22  N7  <0> d          51.770  53.264  36.446  0.00  0.00    -0.233 N 
ATOM     23  H16 <0> d          51.594  53.168  35.497  0.00  0.00     0.174 HD
ATOM     24  H17 <0> d          51.948  54.140  36.819  0.00  0.00     0.174 HD
ATOM     25  C7  <0> d          49.652  47.166  45.938  0.00  0.00     0.252 C 
ATOM     26  O1  <0> d          49.972  46.505  46.907  0.00  0.00    -0.268 OA
ATOM     27  N1  <0> d          48.615  48.025  46.020  0.00  0.00    -0.342 N 
ATOM     28  H7  <0> d          48.360  48.552  45.247  0.00  0.00     0.163 HD
ATOM     29  C8  <0> d          47.875  48.160  47.277  0.00  0.00     0.186 C 
ATOM     30  C9  <0> d          46.390  48.368  46.974  0.00  0.00     0.046 C 
ATOM     31  C10 <0> d          46.035  47.674  45.658  0.00  0.00     0.116 C 
ATOM     32  C11 <0> d          44.750  48.245  45.118  0.00  0.00     0.172 C 
ATOM     33  O2  <0> d          44.149  47.664  44.247  0.00  0.00    -0.648 OA
ATOM     34  O5  <0> d          44.275  49.403  45.604  0.00  0.00    -0.648 OA
ATOM     35  C12 <0> d          48.402  49.346  48.044  0.00  0.00     0.196 C 
ATOM     36  O3  <0> d          47.948  50.447  47.841  0.00  0.00    -0.646 OA
ATOM     37  O6  <0> d          49.376  49.178  48.952  0.00  0.00    -0.646 OA
ENDMDL
MODEL 10
REMARK VINA RESULT:      -8.9      5.625      9.550
ATOM      1  C1  <0> d          46.831  51.422  45.550  0.00  0.00     0.019 A 
ATOM      2  C2  <0> d          45.561  51.917  45.363  0.00  0.00     0.030 A 
ATOM      3  C3  <0> d          44.487  51.045  45.213  0.00  0.00     0.028 A 
ATOM      4  C4  <0> d          44.693  49.669  45.250  0.00  0.00     0.030 A 
ATOM      5  C5  <0> d          45.961  49.166  45.437  0.00  0.00     0.019 A 
ATOM      6  C6  <0> d          47.042  50.039  45.588  0.00  0.00     0.032 A 
ATOM      7  N2  <0> d          43.205  51.549  45.025  0.00  0.00    -0.384 N 
ATOM      8  H12 <0> d          43.067  52.325  44.460  0.00  0.00     0.160 HD
ATOM      9  C13 <0> d          42.062  50.906  45.678  0.00  0.00     0.180 C 
ATOM     10  C14 <0> d          41.124  50.363  44.632  0.00  0.00     0.070 A 
ATOM     11  N4  <0> d          41.373  49.197  44.072  0.00  0.00    -0.241 NA
ATOM     12  C17 <0> d          40.543  48.719  43.154  0.00  0.00     0.174 A 
ATOM     13  C16 <0> d          39.403  49.465  42.771  0.00  0.00     0.202 A 
ATOM     14  C18 <0> d          40.772  47.419  42.503  0.00  0.00     0.292 A 
ATOM     15  N3  <0> d          39.171  50.645  43.344  0.00  0.00    -0.237 NA
ATOM     16  N6  <0> d          38.576  48.963  41.835  0.00  0.00    -0.043 NA
ATOM     17  C15 <0> d          40.004  51.101  44.259  0.00  0.00     0.147 A 
ATOM     18  C19 <0> d          38.799  47.802  41.268  0.00  0.00     0.703 A 
ATOM     19  N5  <0> d          39.872  47.018  41.574  0.00  0.00    -0.152 N 
ATOM     20  H2  <0> d          39.994  46.140  41.111  0.00  0.00     0.187 HD
ATOM     21  O4  <0> d          41.734  46.729  42.788  0.00  0.00    -0.265 OA
ATOM     22  N7  <0> d          37.913  47.356  40.322  0.00  0.00    -0.233 N 
ATOM     23  H16 <0> d          36.961  47.478  40.455  0.00  0.00     0.174 HD
ATOM     24  H17 <0> d          38.238  46.921  39.520  0.00  0.00     0.174 HD
ATOM     25  C7  <0> d          48.401  49.504  45.795  0.00  0.00     0.252 C 
ATOM     26  O1  <0> d          49.207  50.128  46.457  0.00  0.00    -0.268 OA
ATOM     27  N1  <0> d          48.749  48.321  45.248  0.00  0.00    -0.342 N 
ATOM     28  H7  <0> d          48.106  47.823  44.720  0.00  0.00     0.163 HD
ATOM     29  C8  <0> d          50.099  47.789  45.452  0.00  0.00     0.186 C 
ATOM     30  C9  <0> d          50.916  47.965  44.171  0.00  0.00     0.046 C 
ATOM     31  C10 <0> d          52.245  47.220  44.306  0.00  0.00     0.116 C 
ATOM     32  C11 <0> d          52.523  46.453  43.040  0.00  0.00     0.172 C 
ATOM     33  O2  <0> d          52.284  45.270  42.986  0.00  0.00    -0.648 OA
ATOM     34  O5  <0> d          53.038  47.084  41.972  0.00  0.00    -0.648 OA
ATOM     35  C12 <0> d          50.014  46.325  45.797  0.00  0.00     0.196 C 
ATOM     36  O3  <0> d          50.409  45.932  46.869  0.00  0.00    -0.646 OA
ATOM     37  O6  <0> d          49.499  45.456  44.913  0.00  0.00    -0.646 OA
ENDMDL
