MODEL 1
REMARK VINA RESULT:      -9.4      0.000      0.000
ATOM      1  C1  <0> d          51.589  47.961  39.557  0.00  0.00     0.019 A 
ATOM      2  C2  <0> d          52.159  47.420  40.684  0.00  0.00     0.030 A 
ATOM      3  C3  <0> d          52.012  48.054  41.915  0.00  0.00     0.028 A 
ATOM      4  C4  <0> d          51.288  49.239  42.007  0.00  0.00     0.030 A 
ATOM      5  C5  <0> d          50.714  49.787  40.881  0.00  0.00     0.019 A 
ATOM      6  C6  <0> d          50.860  49.151  39.645  0.00  0.00     0.032 A 
ATOM      7  N2  <0> d          52.590  47.505  43.053  0.00  0.00    -0.384 N 
ATOM      8  H12 <0> d          53.272  47.998  43.537  0.00  0.00     0.160 HD
ATOM      9  C13 <0> d          52.173  46.180  43.521  0.00  0.00     0.180 C 
ATOM     10  C14 <0> d          50.736  46.237  43.971  0.00  0.00     0.070 A 
ATOM     11  N4  <0> d          50.437  46.760  45.142  0.00  0.00    -0.241 NA
ATOM     12  C17 <0> d          49.171  46.812  45.534  0.00  0.00     0.174 A 
ATOM     13  C16 <0> d          48.149  46.298  44.702  0.00  0.00     0.202 A 
ATOM     14  C18 <0> d          48.783  47.392  46.831  0.00  0.00     0.292 A 
ATOM     15  N3  <0> d          48.471  45.768  43.522  0.00  0.00    -0.237 NA
ATOM     16  N6  <0> d          46.871  46.358  45.122  0.00  0.00    -0.043 NA
ATOM     17  C15 <0> d          49.734  45.730  43.148  0.00  0.00     0.147 A 
ATOM     18  C19 <0> d          46.548  46.878  46.280  0.00  0.00     0.703 A 
ATOM     19  N5  <0> d          47.467  47.396  47.145  0.00  0.00    -0.152 N 
ATOM     20  H2  <0> d          47.165  47.782  48.017  0.00  0.00     0.187 HD
ATOM     21  O4  <0> d          49.614  47.850  47.592  0.00  0.00    -0.265 OA
ATOM     22  N7  <0> d          45.225  46.903  46.638  0.00  0.00    -0.233 N 
ATOM     23  H16 <0> d          44.786  46.088  46.923  0.00  0.00     0.174 HD
ATOM     24  H17 <0> d          44.730  47.736  46.605  0.00  0.00     0.174 HD
ATOM     25  C7  <0> d          50.241  49.731  38.439  0.00  0.00     0.252 C 
ATOM     26  O1  <0> d          49.611  49.024  37.677  0.00  0.00    -0.268 OA
ATOM     27  N1  <0> d          50.374  51.049  38.181  0.00  0.00    -0.342 N 
ATOM     28  H7  <0> d          50.877  51.613  38.789  0.00  0.00     0.163 HD
ATOM     29  C8  <0> d          49.759  51.626  36.983  0.00  0.00     0.186 C 
ATOM     30  C9  <0> d          50.851  51.982  35.971  0.00  0.00     0.046 C 
ATOM     31  C10 <0> d          50.748  51.053  34.762  0.00  0.00     0.116 C 
ATOM     32  C11 <0> d          51.656  49.866  34.960  0.00  0.00     0.172 C 
ATOM     33  O2  <0> d          52.491  49.884  35.834  0.00  0.00    -0.648 OA
ATOM     34  O5  <0> d          51.538  48.791  34.165  0.00  0.00    -0.648 OA
ATOM     35  C12 <0> d          48.998  52.871  37.360  0.00  0.00     0.196 C 
ATOM     36  O3  <0> d          48.811  53.737  36.539  0.00  0.00    -0.646 OA
ATOM     37  O6  <0> d          48.527  53.017  38.608  0.00  0.00    -0.646 OA
ENDMDL
MODEL 2
REMARK VINA RESULT:      -9.3      1.304      2.900
ATOM      1  C1  <0> d          52.228  48.903  41.018  0.00  0.00     0.019 A 
ATOM      2  C2  <0> d          52.352  48.138  42.154  0.00  0.00     0.030 A 
ATOM      3  C3  <0> d          52.123  46.765  42.100  0.00  0.00     0.028 A 
ATOM      4  C4  <0> d          51.765  46.164  40.897  0.00  0.00     0.030 A 
ATOM      5  C5  <0> d          51.639  46.925  39.756  0.00  0.00     0.019 A 
ATOM      6  C6  <0> d          51.869  48.302  39.808  0.00  0.00     0.032 A 
ATOM      7  N2  <0> d          52.249  45.995  43.250  0.00  0.00    -0.384 N 
ATOM      8  H12 <0> d          52.471  45.053  43.181  0.00  0.00     0.160 HD
ATOM      9  C13 <0> d          52.045  46.604  44.567  0.00  0.00     0.180 C 
ATOM     10  C14 <0> d          50.569  46.675  44.864  0.00  0.00     0.070 A 
ATOM     11  N4  <0> d          50.142  47.377  45.893  0.00  0.00    -0.241 NA
ATOM     12  C17 <0> d          48.842  47.440  46.151  0.00  0.00     0.174 A 
ATOM     13  C16 <0> d          47.922  46.747  45.331  0.00  0.00     0.202 A 
ATOM     14  C18 <0> d          48.313  48.217  47.285  0.00  0.00     0.292 A 
ATOM     15  N3  <0> d          48.373  46.037  44.296  0.00  0.00    -0.237 NA
ATOM     16  N6  <0> d          46.608  46.823  45.613  0.00  0.00    -0.043 NA
ATOM     17  C15 <0> d          49.668  45.991  44.053  0.00  0.00     0.147 A 
ATOM     18  C19 <0> d          46.158  47.519  46.627  0.00  0.00     0.703 A 
ATOM     19  N5  <0> d          46.972  48.217  47.470  0.00  0.00    -0.152 N 
ATOM     20  H2  <0> d          46.575  48.734  48.229  0.00  0.00     0.187 HD
ATOM     21  O4  <0> d          49.052  48.834  48.028  0.00  0.00    -0.265 OA
ATOM     22  N7  <0> d          44.806  47.547  46.851  0.00  0.00    -0.233 N 
ATOM     23  H16 <0> d          44.399  46.890  47.435  0.00  0.00     0.174 HD
ATOM     24  H17 <0> d          44.258  48.223  46.424  0.00  0.00     0.174 HD
ATOM     25  C7  <0> d          51.741  49.119  38.586  0.00  0.00     0.252 C 
ATOM     26  O1  <0> d          52.282  50.206  38.520  0.00  0.00    -0.268 OA
ATOM     27  N1  <0> d          51.024  48.658  37.541  0.00  0.00    -0.342 N 
ATOM     28  H7  <0> d          50.592  47.791  37.594  0.00  0.00     0.163 HD
ATOM     29  C8  <0> d          50.896  49.468  36.326  0.00  0.00     0.186 C 
ATOM     30  C9  <0> d          49.605  50.287  36.394  0.00  0.00     0.046 C 
ATOM     31  C10 <0> d          49.910  51.749  36.065  0.00  0.00     0.116 C 
ATOM     32  C11 <0> d          49.292  52.639  37.112  0.00  0.00     0.172 C 
ATOM     33  O2  <0> d          48.739  53.662  36.785  0.00  0.00    -0.648 OA
ATOM     34  O5  <0> d          49.360  52.297  38.408  0.00  0.00    -0.648 OA
ATOM     35  C12 <0> d          50.855  48.563  35.122  0.00  0.00     0.196 C 
ATOM     36  O3  <0> d          51.442  48.874  34.113  0.00  0.00    -0.646 OA
ATOM     37  O6  <0> d          50.167  47.412  35.171  0.00  0.00    -0.646 OA
ENDMDL
MODEL 3
REMARK VINA RESULT:      -9.3      1.652      3.223
ATOM      1  C1  <0> d          52.163  48.729  40.950  0.00  0.00     0.019 A 
ATOM      2  C2  <0> d          52.247  47.946  42.076  0.00  0.00     0.030 A 
ATOM      3  C3  <0> d          51.929  46.591  42.011  0.00  0.00     0.028 A 
ATOM      4  C4  <0> d          51.524  46.027  40.804  0.00  0.00     0.030 A 
ATOM      5  C5  <0> d          51.438  46.806  39.672  0.00  0.00     0.019 A 
ATOM      6  C6  <0> d          51.757  48.165  39.736  0.00  0.00     0.032 A 
ATOM      7  N2  <0> d          52.014  45.803  43.152  0.00  0.00    -0.384 N 
ATOM      8  H12 <0> d          52.015  44.835  43.074  0.00  0.00     0.160 HD
ATOM      9  C13 <0> d          52.101  46.431  44.473  0.00  0.00     0.180 C 
ATOM     10  C14 <0> d          50.717  46.786  44.952  0.00  0.00     0.070 A 
ATOM     11  N4  <0> d          49.823  45.835  45.133  0.00  0.00    -0.241 NA
ATOM     12  C17 <0> d          48.607  46.151  45.558  0.00  0.00     0.174 A 
ATOM     13  C16 <0> d          48.269  47.502  45.804  0.00  0.00     0.202 A 
ATOM     14  C18 <0> d          47.574  45.126  45.782  0.00  0.00     0.292 A 
ATOM     15  N3  <0> d          49.185  48.451  45.611  0.00  0.00    -0.237 NA
ATOM     16  N6  <0> d          47.028  47.799  46.232  0.00  0.00    -0.043 NA
ATOM     17  C15 <0> d          50.391  48.117  45.193  0.00  0.00     0.147 A 
ATOM     18  C19 <0> d          46.123  46.871  46.424  0.00  0.00     0.703 A 
ATOM     19  N5  <0> d          46.361  45.545  46.211  0.00  0.00    -0.152 N 
ATOM     20  H2  <0> d          45.633  44.877  46.375  0.00  0.00     0.187 HD
ATOM     21  O4  <0> d          47.801  43.947  45.587  0.00  0.00    -0.265 OA
ATOM     22  N7  <0> d          44.881  47.251  46.860  0.00  0.00    -0.233 N 
ATOM     23  H16 <0> d          44.654  47.179  47.799  0.00  0.00     0.174 HD
ATOM     24  H17 <0> d          44.228  47.591  46.228  0.00  0.00     0.174 HD
ATOM     25  C7  <0> d          51.673  49.001  38.523  0.00  0.00     0.252 C 
ATOM     26  O1  <0> d          52.284  50.050  38.463  0.00  0.00    -0.268 OA
ATOM     27  N1  <0> d          50.916  48.600  37.481  0.00  0.00    -0.342 N 
ATOM     28  H7  <0> d          50.428  47.763  37.530  0.00  0.00     0.163 HD
ATOM     29  C8  <0> d          50.831  49.429  36.276  0.00  0.00     0.186 C 
ATOM     30  C9  <0> d          49.523  50.222  36.294  0.00  0.00     0.046 C 
ATOM     31  C10 <0> d          49.810  51.690  35.976  0.00  0.00     0.116 C 
ATOM     32  C11 <0> d          49.285  52.558  37.090  0.00  0.00     0.172 C 
ATOM     33  O2  <0> d          49.249  52.134  38.221  0.00  0.00    -0.648 OA
ATOM     34  O5  <0> d          48.856  53.802  36.825  0.00  0.00    -0.648 OA
ATOM     35  C12 <0> d          50.867  48.546  35.056  0.00  0.00     0.196 C 
ATOM     36  O3  <0> d          50.237  47.516  35.037  0.00  0.00    -0.646 OA
ATOM     37  O6  <0> d          51.599  48.904  33.989  0.00  0.00    -0.646 OA
ENDMDL
MODEL 4
REMARK VINA RESULT:      -9.2      1.606      2.238
ATOM      1  C1  <0> d          52.005  49.353  40.338  0.00  0.00     0.019 A 
ATOM      2  C2  <0> d          52.324  48.582  41.430  0.00  0.00     0.030 A 
ATOM      3  C3  <0> d          52.119  47.204  41.398  0.00  0.00     0.028 A 
ATOM      4  C4  <0> d          51.590  46.605  40.259  0.00  0.00     0.030 A 
ATOM      5  C5  <0> d          51.268  47.371  39.161  0.00  0.00     0.019 A 
ATOM      6  C6  <0> d          51.473  48.753  39.192  0.00  0.00     0.032 A 
ATOM      7  N2  <0> d          52.442  46.428  42.504  0.00  0.00    -0.384 N 
ATOM      8  H12 <0> d          52.781  45.527  42.382  0.00  0.00     0.160 HD
ATOM      9  C13 <0> d          52.270  46.969  43.855  0.00  0.00     0.180 C 
ATOM     10  C14 <0> d          50.824  46.853  44.262  0.00  0.00     0.070 A 
ATOM     11  N4  <0> d          50.409  47.425  45.374  0.00  0.00    -0.241 NA
ATOM     12  C17 <0> d          49.135  47.323  45.728  0.00  0.00     0.174 A 
ATOM     13  C16 <0> d          48.229  46.595  44.921  0.00  0.00     0.202 A 
ATOM     14  C18 <0> d          48.619  47.949  46.957  0.00  0.00     0.292 A 
ATOM     15  N3  <0> d          48.669  46.019  43.801  0.00  0.00    -0.237 NA
ATOM     16  N6  <0> d          46.941  46.503  45.301  0.00  0.00    -0.043 NA
ATOM     17  C15 <0> d          49.938  46.136  43.464  0.00  0.00     0.147 A 
ATOM     18  C19 <0> d          46.504  47.067  46.399  0.00  0.00     0.703 A 
ATOM     19  N5  <0> d          47.304  47.786  47.237  0.00  0.00    -0.152 N 
ATOM     20  H2  <0> d          46.917  48.197  48.063  0.00  0.00     0.187 HD
ATOM     21  O4  <0> d          49.346  48.587  47.694  0.00  0.00    -0.265 OA
ATOM     22  N7  <0> d          45.178  46.928  46.721  0.00  0.00    -0.233 N 
ATOM     23  H16 <0> d          44.727  46.085  46.561  0.00  0.00     0.174 HD
ATOM     24  H17 <0> d          44.693  47.673  47.107  0.00  0.00     0.174 HD
ATOM     25  C7  <0> d          51.136  49.576  38.015  0.00  0.00     0.252 C 
ATOM     26  O1  <0> d          51.238  49.110  36.897  0.00  0.00    -0.268 OA
ATOM     27  N1  <0> d          50.713  50.846  38.180  0.00  0.00    -0.342 N 
ATOM     28  H7  <0> d          50.631  51.217  39.073  0.00  0.00     0.163 HD
ATOM     29  C8  <0> d          50.377  51.664  37.012  0.00  0.00     0.186 C 
ATOM     30  C9  <0> d          51.609  52.461  36.577  0.00  0.00     0.046 C 
ATOM     31  C10 <0> d          51.714  53.736  37.416  0.00  0.00     0.116 C 
ATOM     32  C11 <0> d          52.955  53.675  38.268  0.00  0.00     0.172 C 
ATOM     33  O2  <0> d          53.771  54.566  38.212  0.00  0.00    -0.648 OA
ATOM     34  O5  <0> d          53.156  52.631  39.088  0.00  0.00    -0.648 OA
ATOM     35  C12 <0> d          49.263  52.614  37.368  0.00  0.00     0.196 C 
ATOM     36  O3  <0> d          48.792  52.604  38.481  0.00  0.00    -0.646 OA
ATOM     37  O6  <0> d          48.795  53.473  36.450  0.00  0.00    -0.646 OA
ENDMDL
MODEL 5
REMARK VINA RESULT:      -9.2      1.506      1.955
ATOM      1  C1  <0> d          51.415  47.707  38.801  0.00  0.00     0.019 A 
ATOM      2  C2  <0> d          51.868  46.839  39.766  0.00  0.00     0.030 A 
ATOM      3  C3  <0> d          51.099  46.593  40.901  0.00  0.00     0.028 A 
ATOM      4  C4  <0> d          49.870  47.226  41.061  0.00  0.00     0.030 A 
ATOM      5  C5  <0> d          49.411  48.096  40.099  0.00  0.00     0.019 A 
ATOM      6  C6  <0> d          50.181  48.344  38.959  0.00  0.00     0.032 A 
ATOM      7  N2  <0> d          51.560  45.716  41.874  0.00  0.00    -0.384 N 
ATOM      8  H12 <0> d          51.353  44.770  41.813  0.00  0.00     0.160 HD
ATOM      9  C13 <0> d          52.359  46.218  42.996  0.00  0.00     0.180 C 
ATOM     10  C14 <0> d          51.471  46.986  43.940  0.00  0.00     0.070 A 
ATOM     11  N4  <0> d          50.544  46.351  44.628  0.00  0.00    -0.241 NA
ATOM     12  C17 <0> d          49.766  47.029  45.462  0.00  0.00     0.174 A 
ATOM     13  C16 <0> d          49.924  48.428  45.602  0.00  0.00     0.202 A 
ATOM     14  C18 <0> d          48.720  46.366  46.259  0.00  0.00     0.292 A 
ATOM     15  N3  <0> d          50.864  49.054  44.893  0.00  0.00    -0.237 NA
ATOM     16  N6  <0> d          49.121  49.095  46.451  0.00  0.00    -0.043 NA
ATOM     17  C15 <0> d          51.632  48.362  44.074  0.00  0.00     0.147 A 
ATOM     18  C19 <0> d          48.196  48.486  47.150  0.00  0.00     0.703 A 
ATOM     19  N5  <0> d          47.973  47.143  47.078  0.00  0.00    -0.152 N 
ATOM     20  H2  <0> d          47.253  46.728  47.636  0.00  0.00     0.187 HD
ATOM     21  O4  <0> d          48.533  45.167  46.183  0.00  0.00    -0.265 OA
ATOM     22  N7  <0> d          47.416  49.234  47.993  0.00  0.00    -0.233 N 
ATOM     23  H16 <0> d          47.610  49.252  48.943  0.00  0.00     0.174 HD
ATOM     24  H17 <0> d          46.671  49.743  47.640  0.00  0.00     0.174 HD
ATOM     25  C7  <0> d          49.688  49.271  37.922  0.00  0.00     0.252 C 
ATOM     26  O1  <0> d          48.931  48.872  37.059  0.00  0.00    -0.268 OA
ATOM     27  N1  <0> d          50.078  50.562  37.934  0.00  0.00    -0.342 N 
ATOM     28  H7  <0> d          50.683  50.880  38.623  0.00  0.00     0.163 HD
ATOM     29  C8  <0> d          49.589  51.484  36.905  0.00  0.00     0.186 C 
ATOM     30  C9  <0> d          50.749  51.894  35.995  0.00  0.00     0.046 C 
ATOM     31  C10 <0> d          50.735  51.033  34.731  0.00  0.00     0.116 C 
ATOM     32  C11 <0> d          51.653  49.852  34.916  0.00  0.00     0.172 C 
ATOM     33  O2  <0> d          52.453  49.845  35.821  0.00  0.00    -0.648 OA
ATOM     34  O5  <0> d          51.583  48.810  34.073  0.00  0.00    -0.648 OA
ATOM     35  C12 <0> d          49.010  52.709  37.563  0.00  0.00     0.196 C 
ATOM     36  O3  <0> d          48.725  52.687  38.737  0.00  0.00    -0.646 OA
ATOM     37  O6  <0> d          48.811  53.826  36.846  0.00  0.00    -0.646 OA
ENDMDL
MODEL 6
REMARK VINA RESULT:      -9.1      1.596      2.667
ATOM      1  C1  <0> d          50.746  49.538  41.180  0.00  0.00     0.019 A 
ATOM      2  C2  <0> d          51.227  49.197  42.421  0.00  0.00     0.030 A 
ATOM      3  C3  <0> d          52.080  48.106  42.566  0.00  0.00     0.028 A 
ATOM      4  C4  <0> d          52.447  47.355  41.452  0.00  0.00     0.030 A 
ATOM      5  C5  <0> d          51.968  47.691  40.205  0.00  0.00     0.019 A 
ATOM      6  C6  <0> d          51.113  48.786  40.059  0.00  0.00     0.032 A 
ATOM      7  N2  <0> d          52.564  47.764  43.822  0.00  0.00    -0.384 N 
ATOM      8  H12 <0> d          53.196  48.347  44.274  0.00  0.00     0.160 HD
ATOM      9  C13 <0> d          52.123  46.524  44.466  0.00  0.00     0.180 C 
ATOM     10  C14 <0> d          50.647  46.608  44.759  0.00  0.00     0.070 A 
ATOM     11  N4  <0> d          50.227  47.269  45.818  0.00  0.00    -0.241 NA
ATOM     12  C17 <0> d          48.927  47.344  46.071  0.00  0.00     0.174 A 
ATOM     13  C16 <0> d          47.999  46.708  45.214  0.00  0.00     0.202 A 
ATOM     14  C18 <0> d          48.405  48.076  47.238  0.00  0.00     0.292 A 
ATOM     15  N3  <0> d          48.443  46.040  44.149  0.00  0.00    -0.237 NA
ATOM     16  N6  <0> d          46.685  46.795  45.492  0.00  0.00    -0.043 NA
ATOM     17  C15 <0> d          49.739  45.981  43.911  0.00  0.00     0.147 A 
ATOM     18  C19 <0> d          46.242  47.451  46.536  0.00  0.00     0.703 A 
ATOM     19  N5  <0> d          47.063  48.092  47.415  0.00  0.00    -0.152 N 
ATOM     20  H2  <0> d          46.672  48.580  48.197  0.00  0.00     0.187 HD
ATOM     21  O4  <0> d          49.151  48.643  48.013  0.00  0.00    -0.265 OA
ATOM     22  N7  <0> d          44.889  47.494  46.754  0.00  0.00    -0.233 N 
ATOM     23  H16 <0> d          44.548  47.615  47.653  0.00  0.00     0.174 HD
ATOM     24  H17 <0> d          44.275  47.403  46.010  0.00  0.00     0.174 HD
ATOM     25  C7  <0> d          50.604  49.152  38.723  0.00  0.00     0.252 C 
ATOM     26  O1  <0> d          49.501  49.651  38.608  0.00  0.00    -0.268 OA
ATOM     27  N1  <0> d          51.363  48.933  37.630  0.00  0.00    -0.342 N 
ATOM     28  H7  <0> d          52.243  48.535  37.724  0.00  0.00     0.163 HD
ATOM     29  C8  <0> d          50.858  49.296  36.303  0.00  0.00     0.186 C 
ATOM     30  C9  <0> d          50.695  48.032  35.457  0.00  0.00     0.046 C 
ATOM     31  C10 <0> d          49.479  47.244  35.945  0.00  0.00     0.116 C 
ATOM     32  C11 <0> d          49.902  46.284  37.027  0.00  0.00     0.172 C 
ATOM     33  O2  <0> d          51.025  45.836  37.031  0.00  0.00    -0.648 OA
ATOM     34  O5  <0> d          49.032  45.926  37.984  0.00  0.00    -0.648 OA
ATOM     35  C12 <0> d          51.835  50.228  35.633  0.00  0.00     0.196 C 
ATOM     36  O3  <0> d          51.758  51.419  35.819  0.00  0.00    -0.646 OA
ATOM     37  O6  <0> d          52.790  49.733  34.831  0.00  0.00    -0.646 OA
ENDMDL
MODEL 7
REMARK VINA RESULT:      -9.0      6.397     10.494
ATOM      1  C1  <0> d          44.573  48.916  45.359  0.00  0.00     0.019 A 
ATOM      2  C2  <0> d          43.327  49.492  45.433  0.00  0.00     0.030 A 
ATOM      3  C3  <0> d          43.178  50.862  45.236  0.00  0.00     0.028 A 
ATOM      4  C4  <0> d          44.290  51.654  44.965  0.00  0.00     0.030 A 
ATOM      5  C5  <0> d          45.541  51.084  44.890  0.00  0.00     0.019 A 
ATOM      6  C6  <0> d          45.693  49.708  45.087  0.00  0.00     0.032 A 
ATOM      7  N2  <0> d          41.917  51.441  45.312  0.00  0.00    -0.384 N 
ATOM      8  H12 <0> d          41.396  51.365  46.127  0.00  0.00     0.160 HD
ATOM      9  C13 <0> d          41.372  52.165  44.160  0.00  0.00     0.180 C 
ATOM     10  C14 <0> d          40.379  51.288  43.440  0.00  0.00     0.070 A 
ATOM     11  N4  <0> d          40.756  50.110  42.986  0.00  0.00    -0.241 NA
ATOM     12  C17 <0> d          39.879  49.339  42.356  0.00  0.00     0.174 A 
ATOM     13  C16 <0> d          38.550  49.786  42.164  0.00  0.00     0.202 A 
ATOM     14  C18 <0> d          40.247  48.012  41.835  0.00  0.00     0.292 A 
ATOM     15  N3  <0> d          38.190  50.983  42.626  0.00  0.00    -0.237 NA
ATOM     16  N6  <0> d          37.679  48.988  41.519  0.00  0.00    -0.043 NA
ATOM     17  C15 <0> d          39.074  51.733  43.254  0.00  0.00     0.147 A 
ATOM     18  C19 <0> d          38.027  47.811  41.063  0.00  0.00     0.703 A 
ATOM     19  N5  <0> d          39.284  47.301  41.203  0.00  0.00    -0.152 N 
ATOM     20  H2  <0> d          39.497  46.394  40.836  0.00  0.00     0.187 HD
ATOM     21  O4  <0> d          41.372  47.571  41.968  0.00  0.00    -0.265 OA
ATOM     22  N7  <0> d          37.084  47.056  40.416  0.00  0.00    -0.233 N 
ATOM     23  H16 <0> d          36.191  47.408  40.281  0.00  0.00     0.174 HD
ATOM     24  H17 <0> d          37.310  46.170  40.094  0.00  0.00     0.174 HD
ATOM     25  C7  <0> d          47.032  49.093  45.001  0.00  0.00     0.252 C 
ATOM     26  O1  <0> d          47.876  49.572  44.268  0.00  0.00    -0.268 OA
ATOM     27  N1  <0> d          47.318  48.000  45.736  0.00  0.00    -0.342 N 
ATOM     28  H7  <0> d          46.644  47.618  46.320  0.00  0.00     0.163 HD
ATOM     29  C8  <0> d          48.648  47.388  45.651  0.00  0.00     0.186 C 
ATOM     30  C9  <0> d          48.531  46.003  45.013  0.00  0.00     0.046 C 
ATOM     31  C10 <0> d          47.318  45.274  45.591  0.00  0.00     0.116 C 
ATOM     32  C11 <0> d          47.294  43.855  45.084  0.00  0.00     0.172 C 
ATOM     33  O2  <0> d          48.042  43.032  45.557  0.00  0.00    -0.648 OA
ATOM     34  O5  <0> d          46.444  43.507  44.105  0.00  0.00    -0.648 OA
ATOM     35  C12 <0> d          49.229  47.257  47.035  0.00  0.00     0.196 C 
ATOM     36  O3  <0> d          49.874  46.279  47.329  0.00  0.00    -0.646 OA
ATOM     37  O6  <0> d          49.030  48.228  47.941  0.00  0.00    -0.646 OA
ENDMDL
MODEL 8
REMARK VINA RESULT:      -8.9      2.862      8.733
ATOM      1  C1  <0> d          52.095  47.775  41.758  0.00  0.00     0.019 A 
ATOM      2  C2  <0> d          52.239  47.945  40.402  0.00  0.00     0.030 A 
ATOM      3  C3  <0> d          51.868  46.927  39.526  0.00  0.00     0.028 A 
ATOM      4  C4  <0> d          51.351  45.734  40.023  0.00  0.00     0.030 A 
ATOM      5  C5  <0> d          51.203  45.557  41.380  0.00  0.00     0.019 A 
ATOM      6  C6  <0> d          51.575  46.578  42.260  0.00  0.00     0.032 A 
ATOM      7  N2  <0> d          52.016  47.102  38.156  0.00  0.00    -0.384 N 
ATOM      8  H12 <0> d          52.903  47.158  37.767  0.00  0.00     0.160 HD
ATOM      9  C13 <0> d          50.832  47.205  37.298  0.00  0.00     0.180 C 
ATOM     10  C14 <0> d          50.333  48.627  37.300  0.00  0.00     0.070 A 
ATOM     11  N4  <0> d          49.759  49.116  38.380  0.00  0.00    -0.241 NA
ATOM     12  C17 <0> d          49.323  50.369  38.380  0.00  0.00     0.174 A 
ATOM     13  C16 <0> d          49.464  51.170  37.223  0.00  0.00     0.202 A 
ATOM     14  C18 <0> d          48.681  50.967  39.563  0.00  0.00     0.292 A 
ATOM     15  N3  <0> d          50.043  50.656  36.138  0.00  0.00    -0.237 NA
ATOM     16  N6  <0> d          49.012  52.438  37.245  0.00  0.00    -0.043 NA
ATOM     17  C15 <0> d          50.475  49.410  36.159  0.00  0.00     0.147 A 
ATOM     18  C19 <0> d          48.443  52.950  38.308  0.00  0.00     0.703 A 
ATOM     19  N5  <0> d          48.265  52.251  39.466  0.00  0.00    -0.152 N 
ATOM     20  H2  <0> d          47.824  52.692  40.249  0.00  0.00     0.187 HD
ATOM     21  O4  <0> d          48.529  50.331  40.588  0.00  0.00    -0.265 OA
ATOM     22  N7  <0> d          48.006  54.248  38.254  0.00  0.00    -0.233 N 
ATOM     23  H16 <0> d          48.648  54.972  38.201  0.00  0.00     0.174 HD
ATOM     24  H17 <0> d          47.057  54.441  38.269  0.00  0.00     0.174 HD
ATOM     25  C7  <0> d          51.412  46.394  43.715  0.00  0.00     0.252 C 
ATOM     26  O1  <0> d          52.370  46.097  44.402  0.00  0.00    -0.268 OA
ATOM     27  N1  <0> d          50.199  46.555  44.282  0.00  0.00    -0.342 N 
ATOM     28  H7  <0> d          49.435  46.792  43.733  0.00  0.00     0.163 HD
ATOM     29  C8  <0> d          50.036  46.373  45.727  0.00  0.00     0.186 C 
ATOM     30  C9  <0> d          49.273  45.074  45.994  0.00  0.00     0.046 C 
ATOM     31  C10 <0> d          48.369  44.759  44.802  0.00  0.00     0.116 C 
ATOM     32  C11 <0> d          46.960  44.531  45.285  0.00  0.00     0.172 C 
ATOM     33  O2  <0> d          46.594  45.017  46.329  0.00  0.00    -0.648 OA
ATOM     34  O5  <0> d          46.113  43.786  44.557  0.00  0.00    -0.648 OA
ATOM     35  C12 <0> d          49.264  47.535  46.296  0.00  0.00     0.196 C 
ATOM     36  O3  <0> d          48.554  48.198  45.578  0.00  0.00    -0.646 OA
ATOM     37  O6  <0> d          49.365  47.833  47.600  0.00  0.00    -0.646 OA
ENDMDL
MODEL 9
REMARK VINA RESULT:      -8.6      2.555      8.998
ATOM      1  C1  <0> d          51.833  47.741  43.435  0.00  0.00     0.019 A 
ATOM      2  C2  <0> d          52.362  47.923  42.179  0.00  0.00     0.030 A 
ATOM      3  C3  <0> d          52.084  47.009  41.165  0.00  0.00     0.028 A 
ATOM      4  C4  <0> d          51.271  45.909  41.421  0.00  0.00     0.030 A 
ATOM      5  C5  <0> d          50.738  45.721  42.676  0.00  0.00     0.019 A 
ATOM      6  C6  <0> d          51.016  46.637  43.695  0.00  0.00     0.032 A 
ATOM      7  N2  <0> d          52.621  47.195  39.897  0.00  0.00    -0.384 N 
ATOM      8  H12 <0> d          53.549  47.460  39.797  0.00  0.00     0.160 HD
ATOM      9  C13 <0> d          51.784  46.995  38.710  0.00  0.00     0.180 C 
ATOM     10  C14 <0> d          51.015  48.257  38.419  0.00  0.00     0.070 A 
ATOM     11  N4  <0> d          51.624  49.424  38.485  0.00  0.00    -0.241 NA
ATOM     12  C17 <0> d          50.946  50.534  38.224  0.00  0.00     0.174 A 
ATOM     13  C16 <0> d          49.574  50.464  37.888  0.00  0.00     0.202 A 
ATOM     14  C18 <0> d          51.581  51.861  38.277  0.00  0.00     0.292 A 
ATOM     15  N3  <0> d          48.973  49.275  37.831  0.00  0.00    -0.237 NA
ATOM     16  N6  <0> d          48.905  51.604  37.631  0.00  0.00    -0.043 NA
ATOM     17  C15 <0> d          49.666  48.183  38.088  0.00  0.00     0.147 A 
ATOM     18  C19 <0> d          49.489  52.775  37.685  0.00  0.00     0.703 A 
ATOM     19  N5  <0> d          50.806  52.936  38.000  0.00  0.00    -0.152 N 
ATOM     20  H2  <0> d          51.202  53.854  38.026  0.00  0.00     0.187 HD
ATOM     21  O4  <0> d          52.757  51.988  38.561  0.00  0.00    -0.265 OA
ATOM     22  N7  <0> d          48.741  53.890  37.410  0.00  0.00    -0.233 N 
ATOM     23  H16 <0> d          48.449  54.467  38.132  0.00  0.00     0.174 HD
ATOM     24  H17 <0> d          48.504  54.102  36.495  0.00  0.00     0.174 HD
ATOM     25  C7  <0> d          50.441  46.442  45.040  0.00  0.00     0.252 C 
ATOM     26  O1  <0> d          51.138  46.026  45.945  0.00  0.00    -0.268 OA
ATOM     27  N1  <0> d          49.142  46.725  45.264  0.00  0.00    -0.342 N 
ATOM     28  H7  <0> d          48.586  47.057  44.541  0.00  0.00     0.163 HD
ATOM     29  C8  <0> d          48.570  46.532  46.600  0.00  0.00     0.186 C 
ATOM     30  C9  <0> d          47.198  45.865  46.475  0.00  0.00     0.046 C 
ATOM     31  C10 <0> d          46.961  45.454  45.022  0.00  0.00     0.116 C 
ATOM     32  C11 <0> d          47.001  43.951  44.911  0.00  0.00     0.172 C 
ATOM     33  O2  <0> d          46.217  43.377  44.192  0.00  0.00    -0.648 OA
ATOM     34  O5  <0> d          47.907  43.252  45.613  0.00  0.00    -0.648 OA
ATOM     35  C12 <0> d          48.419  47.868  47.279  0.00  0.00     0.196 C 
ATOM     36  O3  <0> d          49.325  48.314  47.942  0.00  0.00    -0.646 OA
ATOM     37  O6  <0> d          47.279  48.564  47.147  0.00  0.00    -0.646 OA
ENDMDL
MODEL 10
REMARK VINA RESULT:      -8.5      2.331      3.645
ATOM      1  C1  <0> d          51.256  47.246  39.466  0.00  0.00     0.019 A 
ATOM      2  C2  <0> d          51.081  46.386  40.524  0.00  0.00     0.030 A 
ATOM      3  C3  <0> d          51.379  46.802  41.819  0.00  0.00     0.028 A 
ATOM      4  C4  <0> d          51.856  48.090  42.046  0.00  0.00     0.030 A 
ATOM      5  C5  <0> d          52.034  48.956  40.991  0.00  0.00     0.019 A 
ATOM      6  C6  <0> d          51.735  48.541  39.690  0.00  0.00     0.032 A 
ATOM      7  N2  <0> d          51.201  45.930  42.886  0.00  0.00    -0.384 N 
ATOM      8  H12 <0> d          51.965  45.470  43.269  0.00  0.00     0.160 HD
ATOM      9  C13 <0> d          49.861  45.704  43.433  0.00  0.00     0.180 C 
ATOM     10  C14 <0> d          49.393  46.946  44.146  0.00  0.00     0.070 A 
ATOM     11  N4  <0> d          48.345  47.605  43.692  0.00  0.00    -0.241 NA
ATOM     12  C17 <0> d          47.933  48.696  44.324  0.00  0.00     0.174 A 
ATOM     13  C16 <0> d          48.623  49.156  45.470  0.00  0.00     0.202 A 
ATOM     14  C18 <0> d          46.765  49.465  43.862  0.00  0.00     0.292 A 
ATOM     15  N3  <0> d          49.683  48.479  45.911  0.00  0.00    -0.237 NA
ATOM     16  N6  <0> d          48.189  50.268  46.093  0.00  0.00    -0.043 NA
ATOM     17  C15 <0> d          50.074  47.393  45.273  0.00  0.00     0.147 A 
ATOM     18  C19 <0> d          47.147  50.937  45.665  0.00  0.00     0.703 A 
ATOM     19  N5  <0> d          46.424  50.568  44.569  0.00  0.00    -0.152 N 
ATOM     20  H2  <0> d          45.635  51.115  44.286  0.00  0.00     0.187 HD
ATOM     21  O4  <0> d          46.131  49.123  42.882  0.00  0.00    -0.265 OA
ATOM     22  N7  <0> d          46.766  52.061  46.351  0.00  0.00    -0.233 N 
ATOM     23  H16 <0> d          46.038  52.014  46.990  0.00  0.00     0.174 HD
ATOM     24  H17 <0> d          47.223  52.901  46.197  0.00  0.00     0.174 HD
ATOM     25  C7  <0> d          51.918  49.469  38.558  0.00  0.00     0.252 C 
ATOM     26  O1  <0> d          52.710  50.387  38.646  0.00  0.00    -0.268 OA
ATOM     27  N1  <0> d          51.206  49.298  37.426  0.00  0.00    -0.342 N 
ATOM     28  H7  <0> d          50.573  48.566  37.357  0.00  0.00     0.163 HD
ATOM     29  C8  <0> d          51.387  50.220  36.301  0.00  0.00     0.186 C 
ATOM     30  C9  <0> d          50.024  50.755  35.856  0.00  0.00     0.046 C 
ATOM     31  C10 <0> d          49.275  51.312  37.067  0.00  0.00     0.116 C 
ATOM     32  C11 <0> d          49.329  52.818  37.043  0.00  0.00     0.172 C 
ATOM     33  O2  <0> d          48.354  53.462  37.353  0.00  0.00    -0.648 OA
ATOM     34  O5  <0> d          50.459  53.442  36.676  0.00  0.00    -0.648 OA
ATOM     35  C12 <0> d          52.039  49.490  35.155  0.00  0.00     0.196 C 
ATOM     36  O3  <0> d          51.359  48.990  34.292  0.00  0.00    -0.646 OA
ATOM     37  O6  <0> d          53.377  49.398  35.093  0.00  0.00    -0.646 OA
ENDMDL
MODEL 1
REMARK VINA RESULT:      -9.4      0.000      0.000
ATOM      1  C1  <0> d          50.556  49.784  40.978  0.00  0.00     0.019 A 
ATOM      2  C2  <0> d          51.168  49.253  42.089  0.00  0.00     0.030 A 
ATOM      3  C3  <0> d          52.018  48.157  41.961  0.00  0.00     0.028 A 
ATOM      4  C4  <0> d          52.250  47.596  40.708  0.00  0.00     0.030 A 
ATOM      5  C5  <0> d          51.639  48.122  39.593  0.00  0.00     0.019 A 
ATOM      6  C6  <0> d          50.786  49.223  39.718  0.00  0.00     0.032 A 
ATOM      7  N2  <0> d          52.635  47.623  43.085  0.00  0.00    -0.384 N 
ATOM      8  H12 <0> d          53.316  48.132  43.553  0.00  0.00     0.160 HD
ATOM      9  C13 <0> d          52.260  46.290  43.565  0.00  0.00     0.180 C 
ATOM     10  C14 <0> d          50.816  46.301  43.998  0.00  0.00     0.070 A 
ATOM     11  N4  <0> d          50.488  46.819  45.164  0.00  0.00    -0.241 NA
ATOM     12  C17 <0> d          49.217  46.831  45.543  0.00  0.00     0.174 A 
ATOM     13  C16 <0> d          48.220  46.282  44.701  0.00  0.00     0.202 A 
ATOM     14  C18 <0> d          48.795  47.402  46.833  0.00  0.00     0.292 A 
ATOM     15  N3  <0> d          48.573  45.758  43.526  0.00  0.00    -0.237 NA
ATOM     16  N6  <0> d          46.937  46.302  45.105  0.00  0.00    -0.043 NA
ATOM     17  C15 <0> d          49.841  45.759  43.166  0.00  0.00     0.147 A 
ATOM     18  C19 <0> d          46.585  46.815  46.259  0.00  0.00     0.703 A 
ATOM     19  N5  <0> d          47.477  47.366  47.133  0.00  0.00    -0.152 N 
ATOM     20  H2  <0> d          47.153  47.745  47.999  0.00  0.00     0.187 HD
ATOM     21  O4  <0> d          49.604  47.890  47.601  0.00  0.00    -0.265 OA
ATOM     22  N7  <0> d          45.258  46.799  46.603  0.00  0.00    -0.233 N 
ATOM     23  H16 <0> d          44.938  47.365  47.322  0.00  0.00     0.174 HD
ATOM     24  H17 <0> d          44.642  46.222  46.127  0.00  0.00     0.174 HD
ATOM     25  C7  <0> d          50.136  49.792  38.524  0.00  0.00     0.252 C 
ATOM     26  O1  <0> d          49.333  49.131  37.893  0.00  0.00    -0.268 OA
ATOM     27  N1  <0> d          50.433  51.047  38.129  0.00  0.00    -0.342 N 
ATOM     28  H7  <0> d          51.074  51.574  38.632  0.00  0.00     0.163 HD
ATOM     29  C8  <0> d          49.788  51.614  36.942  0.00  0.00     0.186 C 
ATOM     30  C9  <0> d          50.850  51.948  35.894  0.00  0.00     0.046 C 
ATOM     31  C10 <0> d          50.755  50.951  34.737  0.00  0.00     0.116 C 
ATOM     32  C11 <0> d          51.627  49.758  35.028  0.00  0.00     0.172 C 
ATOM     33  O2  <0> d          51.461  48.725  34.424  0.00  0.00    -0.648 OA
ATOM     34  O5  <0> d          52.590  49.841  35.961  0.00  0.00    -0.648 OA
ATOM     35  C12 <0> d          49.048  52.871  37.325  0.00  0.00     0.196 C 
ATOM     36  O3  <0> d          48.863  53.737  36.503  0.00  0.00    -0.646 OA
ATOM     37  O6  <0> d          48.593  53.026  38.578  0.00  0.00    -0.646 OA
ENDMDL
MODEL 2
REMARK VINA RESULT:      -9.3      1.636      2.207
ATOM      1  C1  <0> d          51.518  47.391  39.180  0.00  0.00     0.019 A 
ATOM      2  C2  <0> d          51.834  46.627  40.278  0.00  0.00     0.030 A 
ATOM      3  C3  <0> d          52.185  47.241  41.478  0.00  0.00     0.028 A 
ATOM      4  C4  <0> d          52.218  48.630  41.568  0.00  0.00     0.030 A 
ATOM      5  C5  <0> d          51.903  49.400  40.472  0.00  0.00     0.019 A 
ATOM      6  C6  <0> d          51.550  48.787  39.266  0.00  0.00     0.032 A 
ATOM      7  N2  <0> d          52.504  46.466  42.586  0.00  0.00    -0.384 N 
ATOM      8  H12 <0> d          52.853  45.568  42.467  0.00  0.00     0.160 HD
ATOM      9  C13 <0> d          52.313  47.003  43.936  0.00  0.00     0.180 C 
ATOM     10  C14 <0> d          50.859  46.892  44.319  0.00  0.00     0.070 A 
ATOM     11  N4  <0> d          50.437  47.430  45.446  0.00  0.00    -0.241 NA
ATOM     12  C17 <0> d          49.157  47.334  45.779  0.00  0.00     0.174 A 
ATOM     13  C16 <0> d          48.252  46.651  44.933  0.00  0.00     0.202 A 
ATOM     14  C18 <0> d          48.633  47.921  47.025  0.00  0.00     0.292 A 
ATOM     15  N3  <0> d          48.699  46.111  43.799  0.00  0.00    -0.237 NA
ATOM     16  N6  <0> d          46.958  46.564  45.292  0.00  0.00    -0.043 NA
ATOM     17  C15 <0> d          49.974  46.220  43.483  0.00  0.00     0.147 A 
ATOM     18  C19 <0> d          46.514  47.093  46.406  0.00  0.00     0.703 A 
ATOM     19  N5  <0> d          47.314  47.769  47.281  0.00  0.00    -0.152 N 
ATOM     20  H2  <0> d          46.922  48.154  48.116  0.00  0.00     0.187 HD
ATOM     21  O4  <0> d          49.360  48.521  47.795  0.00  0.00    -0.265 OA
ATOM     22  N7  <0> d          45.182  46.963  46.705  0.00  0.00    -0.233 N 
ATOM     23  H16 <0> d          44.659  46.263  46.286  0.00  0.00     0.174 HD
ATOM     24  H17 <0> d          44.765  47.571  47.333  0.00  0.00     0.174 HD
ATOM     25  C7  <0> d          51.206  49.610  38.092  0.00  0.00     0.252 C 
ATOM     26  O1  <0> d          51.351  49.162  36.971  0.00  0.00    -0.268 OA
ATOM     27  N1  <0> d          50.733  50.861  38.262  0.00  0.00    -0.342 N 
ATOM     28  H7  <0> d          50.618  51.218  39.157  0.00  0.00     0.163 HD
ATOM     29  C8  <0> d          50.391  51.680  37.097  0.00  0.00     0.186 C 
ATOM     30  C9  <0> d          51.619  52.477  36.655  0.00  0.00     0.046 C 
ATOM     31  C10 <0> d          51.750  53.733  37.518  0.00  0.00     0.116 C 
ATOM     32  C11 <0> d          53.002  53.642  38.352  0.00  0.00     0.172 C 
ATOM     33  O2  <0> d          53.189  52.680  39.059  0.00  0.00    -0.648 OA
ATOM     34  O5  <0> d          53.910  54.631  38.310  0.00  0.00    -0.648 OA
ATOM     35  C12 <0> d          49.279  52.631  37.460  0.00  0.00     0.196 C 
ATOM     36  O3  <0> d          48.803  53.354  36.616  0.00  0.00    -0.646 OA
ATOM     37  O6  <0> d          48.817  52.674  38.719  0.00  0.00    -0.646 OA
ENDMDL
MODEL 3
REMARK VINA RESULT:      -9.3      1.690      3.141
ATOM      1  C1  <0> d          52.291  48.665  40.919  0.00  0.00     0.019 A 
ATOM      2  C2  <0> d          52.381  47.869  42.037  0.00  0.00     0.030 A 
ATOM      3  C3  <0> d          51.931  46.552  41.994  0.00  0.00     0.028 A 
ATOM      4  C4  <0> d          51.388  46.038  40.819  0.00  0.00     0.030 A 
ATOM      5  C5  <0> d          51.295  46.830  39.698  0.00  0.00     0.019 A 
ATOM      6  C6  <0> d          51.746  48.153  39.738  0.00  0.00     0.032 A 
ATOM      7  N2  <0> d          52.023  45.750  43.125  0.00  0.00    -0.384 N 
ATOM      8  H12 <0> d          52.027  44.784  43.035  0.00  0.00     0.160 HD
ATOM      9  C13 <0> d          52.114  46.362  44.453  0.00  0.00     0.180 C 
ATOM     10  C14 <0> d          50.733  46.727  44.933  0.00  0.00     0.070 A 
ATOM     11  N4  <0> d          49.834  45.781  45.118  0.00  0.00    -0.241 NA
ATOM     12  C17 <0> d          48.620  46.104  45.545  0.00  0.00     0.174 A 
ATOM     13  C16 <0> d          48.290  47.458  45.789  0.00  0.00     0.202 A 
ATOM     14  C18 <0> d          47.581  45.086  45.772  0.00  0.00     0.292 A 
ATOM     15  N3  <0> d          49.212  48.401  45.591  0.00  0.00    -0.237 NA
ATOM     16  N6  <0> d          47.052  47.764  46.218  0.00  0.00    -0.043 NA
ATOM     17  C15 <0> d          50.414  48.060  45.172  0.00  0.00     0.147 A 
ATOM     18  C19 <0> d          46.142  46.841  46.414  0.00  0.00     0.703 A 
ATOM     19  N5  <0> d          46.372  45.512  46.204  0.00  0.00    -0.152 N 
ATOM     20  H2  <0> d          45.642  44.850  46.371  0.00  0.00     0.187 HD
ATOM     21  O4  <0> d          47.802  43.904  45.581  0.00  0.00    -0.265 OA
ATOM     22  N7  <0> d          44.903  47.229  46.852  0.00  0.00    -0.233 N 
ATOM     23  H16 <0> d          44.471  48.003  46.458  0.00  0.00     0.174 HD
ATOM     24  H17 <0> d          44.459  46.730  47.554  0.00  0.00     0.174 HD
ATOM     25  C7  <0> d          51.653  49.001  38.536  0.00  0.00     0.252 C 
ATOM     26  O1  <0> d          52.215  50.079  38.506  0.00  0.00    -0.268 OA
ATOM     27  N1  <0> d          50.940  48.583  37.470  0.00  0.00    -0.342 N 
ATOM     28  H7  <0> d          50.491  47.723  37.495  0.00  0.00     0.163 HD
ATOM     29  C8  <0> d          50.846  49.425  36.275  0.00  0.00     0.186 C 
ATOM     30  C9  <0> d          49.577  50.275  36.348  0.00  0.00     0.046 C 
ATOM     31  C10 <0> d          49.919  51.731  36.028  0.00  0.00     0.116 C 
ATOM     32  C11 <0> d          49.324  52.631  37.079  0.00  0.00     0.172 C 
ATOM     33  O2  <0> d          48.742  53.639  36.754  0.00  0.00    -0.648 OA
ATOM     34  O5  <0> d          49.440  52.313  38.379  0.00  0.00    -0.648 OA
ATOM     35  C12 <0> d          50.797  48.551  35.047  0.00  0.00     0.196 C 
ATOM     36  O3  <0> d          50.131  47.543  35.050  0.00  0.00    -0.646 OA
ATOM     37  O6  <0> d          51.491  48.895  33.952  0.00  0.00    -0.646 OA
ENDMDL
MODEL 4
REMARK VINA RESULT:      -9.2      1.604      2.712
ATOM      1  C1  <0> d          51.511  46.842  39.877  0.00  0.00     0.019 A 
ATOM      2  C2  <0> d          51.633  46.097  41.026  0.00  0.00     0.030 A 
ATOM      3  C3  <0> d          52.079  46.696  42.201  0.00  0.00     0.028 A 
ATOM      4  C4  <0> d          52.402  48.050  42.216  0.00  0.00     0.030 A 
ATOM      5  C5  <0> d          52.283  48.800  41.069  0.00  0.00     0.019 A 
ATOM      6  C6  <0> d          51.835  48.202  39.887  0.00  0.00     0.032 A 
ATOM      7  N2  <0> d          52.201  45.941  43.362  0.00  0.00    -0.384 N 
ATOM      8  H12 <0> d          52.417  44.997  43.306  0.00  0.00     0.160 HD
ATOM      9  C13 <0> d          52.003  46.571  44.670  0.00  0.00     0.180 C 
ATOM     10  C14 <0> d          50.529  46.647  44.972  0.00  0.00     0.070 A 
ATOM     11  N4  <0> d          50.102  47.406  45.962  0.00  0.00    -0.241 NA
ATOM     12  C17 <0> d          48.804  47.475  46.224  0.00  0.00     0.174 A 
ATOM     13  C16 <0> d          47.883  46.729  45.450  0.00  0.00     0.202 A 
ATOM     14  C18 <0> d          48.275  48.311  47.315  0.00  0.00     0.292 A 
ATOM     15  N3  <0> d          48.334  45.963  44.456  0.00  0.00    -0.237 NA
ATOM     16  N6  <0> d          46.571  46.811  45.735  0.00  0.00    -0.043 NA
ATOM     17  C15 <0> d          49.628  45.911  44.208  0.00  0.00     0.147 A 
ATOM     18  C19 <0> d          46.122  47.562  46.711  0.00  0.00     0.703 A 
ATOM     19  N5  <0> d          46.936  48.313  47.507  0.00  0.00    -0.152 N 
ATOM     20  H2  <0> d          46.540  48.870  48.238  0.00  0.00     0.187 HD
ATOM     21  O4  <0> d          49.014  48.976  48.016  0.00  0.00    -0.265 OA
ATOM     22  N7  <0> d          44.771  47.595  46.941  0.00  0.00    -0.233 N 
ATOM     23  H16 <0> d          44.286  48.430  46.857  0.00  0.00     0.174 HD
ATOM     24  H17 <0> d          44.302  46.783  47.190  0.00  0.00     0.174 HD
ATOM     25  C7  <0> d          51.700  49.005  38.658  0.00  0.00     0.252 C 
ATOM     26  O1  <0> d          52.324  50.042  38.536  0.00  0.00    -0.268 OA
ATOM     27  N1  <0> d          50.882  48.590  37.669  0.00  0.00    -0.342 N 
ATOM     28  H7  <0> d          50.384  47.764  37.767  0.00  0.00     0.163 HD
ATOM     29  C8  <0> d          50.747  49.387  36.447  0.00  0.00     0.186 C 
ATOM     30  C9  <0> d          49.410  50.129  36.467  0.00  0.00     0.046 C 
ATOM     31  C10 <0> d          49.639  51.582  36.890  0.00  0.00     0.116 C 
ATOM     32  C11 <0> d          50.734  52.184  36.049  0.00  0.00     0.172 C 
ATOM     33  O2  <0> d          51.707  52.666  36.578  0.00  0.00    -0.648 OA
ATOM     34  O5  <0> d          50.629  52.186  34.710  0.00  0.00    -0.648 OA
ATOM     35  C12 <0> d          50.799  48.478  35.246  0.00  0.00     0.196 C 
ATOM     36  O3  <0> d          51.495  48.765  34.301  0.00  0.00    -0.646 OA
ATOM     37  O6  <0> d          50.074  47.349  35.228  0.00  0.00    -0.646 OA
ENDMDL
MODEL 5
REMARK VINA RESULT:      -9.1      2.130      2.803
ATOM      1  C1  <0> d          52.237  48.287  40.793  0.00  0.00     0.019 A 
ATOM      2  C2  <0> d          52.334  47.607  41.984  0.00  0.00     0.030 A 
ATOM      3  C3  <0> d          51.928  46.278  42.065  0.00  0.00     0.028 A 
ATOM      4  C4  <0> d          51.420  45.633  40.940  0.00  0.00     0.030 A 
ATOM      5  C5  <0> d          51.319  46.309  39.745  0.00  0.00     0.019 A 
ATOM      6  C6  <0> d          51.727  47.643  39.661  0.00  0.00     0.032 A 
ATOM      7  N2  <0> d          52.028  45.593  43.270  0.00  0.00    -0.384 N 
ATOM      8  H12 <0> d          52.040  44.623  43.277  0.00  0.00     0.160 HD
ATOM      9  C13 <0> d          52.115  46.336  44.530  0.00  0.00     0.180 C 
ATOM     10  C14 <0> d          50.730  46.729  44.977  0.00  0.00     0.070 A 
ATOM     11  N4  <0> d          49.819  45.798  45.180  0.00  0.00    -0.241 NA
ATOM     12  C17 <0> d          48.603  46.146  45.577  0.00  0.00     0.174 A 
ATOM     13  C16 <0> d          48.283  47.510  45.773  0.00  0.00     0.202 A 
ATOM     14  C18 <0> d          47.550  45.145  45.821  0.00  0.00     0.292 A 
ATOM     15  N3  <0> d          49.217  48.438  45.559  0.00  0.00    -0.237 NA
ATOM     16  N6  <0> d          47.041  47.841  46.173  0.00  0.00    -0.043 NA
ATOM     17  C15 <0> d          50.422  48.072  45.169  0.00  0.00     0.147 A 
ATOM     18  C19 <0> d          46.120  46.933  46.385  0.00  0.00     0.703 A 
ATOM     19  N5  <0> d          46.339  45.596  46.221  0.00  0.00    -0.152 N 
ATOM     20  H2  <0> d          45.600  44.946  46.398  0.00  0.00     0.187 HD
ATOM     21  O4  <0> d          47.762  43.956  45.671  0.00  0.00    -0.265 OA
ATOM     22  N7  <0> d          44.878  47.346  46.791  0.00  0.00    -0.233 N 
ATOM     23  H16 <0> d          44.118  46.748  46.712  0.00  0.00     0.174 HD
ATOM     24  H17 <0> d          44.759  48.236  47.157  0.00  0.00     0.174 HD
ATOM     25  C7  <0> d          51.625  48.367  38.380  0.00  0.00     0.252 C 
ATOM     26  O1  <0> d          51.981  47.831  37.348  0.00  0.00    -0.268 OA
ATOM     27  N1  <0> d          51.140  49.625  38.355  0.00  0.00    -0.342 N 
ATOM     28  H7  <0> d          50.857  50.052  39.179  0.00  0.00     0.163 HD
ATOM     29  C8  <0> d          51.038  50.346  37.083  0.00  0.00     0.186 C 
ATOM     30  C9  <0> d          51.893  51.613  37.145  0.00  0.00     0.046 C 
ATOM     31  C10 <0> d          51.814  52.213  38.550  0.00  0.00     0.116 C 
ATOM     32  C11 <0> d          53.189  52.233  39.166  0.00  0.00     0.172 C 
ATOM     33  O2  <0> d          53.709  51.201  39.519  0.00  0.00    -0.648 OA
ATOM     34  O5  <0> d          53.837  53.399  39.324  0.00  0.00    -0.648 OA
ATOM     35  C12 <0> d          49.600  50.721  36.832  0.00  0.00     0.196 C 
ATOM     36  O3  <0> d          48.712  49.980  37.183  0.00  0.00    -0.646 OA
ATOM     37  O6  <0> d          49.307  51.878  36.220  0.00  0.00    -0.646 OA
ENDMDL
MODEL 6
REMARK VINA RESULT:      -9.1      2.783      8.596
ATOM      1  C1  <0> d          51.852  47.949  42.949  0.00  0.00     0.019 A 
ATOM      2  C2  <0> d          52.295  48.161  41.664  0.00  0.00     0.030 A 
ATOM      3  C3  <0> d          52.154  47.162  40.704  0.00  0.00     0.028 A 
ATOM      4  C4  <0> d          51.566  45.946  41.043  0.00  0.00     0.030 A 
ATOM      5  C5  <0> d          51.122  45.728  42.327  0.00  0.00     0.019 A 
ATOM      6  C6  <0> d          51.261  46.730  43.293  0.00  0.00     0.032 A 
ATOM      7  N2  <0> d          52.601  47.379  39.407  0.00  0.00    -0.384 N 
ATOM      8  H12 <0> d          53.543  47.543  39.239  0.00  0.00     0.160 HD
ATOM      9  C13 <0> d          51.652  47.360  38.291  0.00  0.00     0.180 C 
ATOM     10  C14 <0> d          51.056  48.733  38.115  0.00  0.00     0.070 A 
ATOM     11  N4  <0> d          50.147  49.165  38.966  0.00  0.00    -0.241 NA
ATOM     12  C17 <0> d          49.627  50.375  38.813  0.00  0.00     0.174 A 
ATOM     13  C16 <0> d          50.040  51.194  37.734  0.00  0.00     0.202 A 
ATOM     14  C18 <0> d          48.612  50.908  39.738  0.00  0.00     0.292 A 
ATOM     15  N3  <0> d          50.957  50.737  36.881  0.00  0.00    -0.237 NA
ATOM     16  N6  <0> d          49.497  52.417  37.595  0.00  0.00    -0.043 NA
ATOM     17  C15 <0> d          51.466  49.533  37.053  0.00  0.00     0.147 A 
ATOM     18  C19 <0> d          48.595  52.871  38.431  0.00  0.00     0.703 A 
ATOM     19  N5  <0> d          48.138  52.152  39.497  0.00  0.00    -0.152 N 
ATOM     20  H2  <0> d          47.449  52.547  40.104  0.00  0.00     0.187 HD
ATOM     21  O4  <0> d          48.216  50.254  40.685  0.00  0.00    -0.265 OA
ATOM     22  N7  <0> d          48.087  54.127  38.225  0.00  0.00    -0.233 N 
ATOM     23  H16 <0> d          47.277  54.242  37.705  0.00  0.00     0.174 HD
ATOM     24  H17 <0> d          48.539  54.899  38.598  0.00  0.00     0.174 HD
ATOM     25  C7  <0> d          50.781  46.501  44.668  0.00  0.00     0.252 C 
ATOM     26  O1  <0> d          51.563  46.172  45.539  0.00  0.00    -0.268 OA
ATOM     27  N1  <0> d          49.473  46.654  44.959  0.00  0.00    -0.342 N 
ATOM     28  H7  <0> d          48.850  46.916  44.263  0.00  0.00     0.163 HD
ATOM     29  C8  <0> d          48.994  46.428  46.325  0.00  0.00     0.186 C 
ATOM     30  C9  <0> d          47.715  45.590  46.284  0.00  0.00     0.046 C 
ATOM     31  C10 <0> d          48.033  44.200  45.730  0.00  0.00     0.116 C 
ATOM     32  C11 <0> d          47.433  44.057  44.356  0.00  0.00     0.172 C 
ATOM     33  O2  <0> d          46.382  43.477  44.212  0.00  0.00    -0.648 OA
ATOM     34  O5  <0> d          48.064  44.573  43.289  0.00  0.00    -0.648 OA
ATOM     35  C12 <0> d          48.707  47.753  46.983  0.00  0.00     0.196 C 
ATOM     36  O3  <0> d          49.337  48.093  47.956  0.00  0.00    -0.646 OA
ATOM     37  O6  <0> d          47.752  48.555  46.487  0.00  0.00    -0.646 OA
ENDMDL
MODEL 7
REMARK VINA RESULT:      -9.0      6.525     10.636
ATOM      1  C1  <0> d          44.461  48.945  45.563  0.00  0.00     0.019 A 
ATOM      2  C2  <0> d          43.196  49.482  45.591  0.00  0.00     0.030 A 
ATOM      3  C3  <0> d          42.997  50.817  45.248  0.00  0.00     0.028 A 
ATOM      4  C4  <0> d          44.079  51.612  44.878  0.00  0.00     0.030 A 
ATOM      5  C5  <0> d          45.348  51.080  44.850  0.00  0.00     0.019 A 
ATOM      6  C6  <0> d          45.551  49.739  45.193  0.00  0.00     0.032 A 
ATOM      7  N2  <0> d          41.717  51.357  45.276  0.00  0.00    -0.384 N 
ATOM      8  H12 <0> d          41.167  51.261  46.069  0.00  0.00     0.160 HD
ATOM      9  C13 <0> d          41.197  52.072  44.107  0.00  0.00     0.180 C 
ATOM     10  C14 <0> d          40.201  51.199  43.387  0.00  0.00     0.070 A 
ATOM     11  N4  <0> d          40.581  50.032  42.907  0.00  0.00    -0.241 NA
ATOM     12  C17 <0> d          39.703  49.264  42.278  0.00  0.00     0.174 A 
ATOM     13  C16 <0> d          38.366  49.700  42.115  0.00  0.00     0.202 A 
ATOM     14  C18 <0> d          40.074  47.949  41.726  0.00  0.00     0.292 A 
ATOM     15  N3  <0> d          38.002  50.886  42.604  0.00  0.00    -0.237 NA
ATOM     16  N6  <0> d          37.492  48.906  41.470  0.00  0.00    -0.043 NA
ATOM     17  C15 <0> d          38.889  51.633  43.230  0.00  0.00     0.147 A 
ATOM     18  C19 <0> d          37.845  47.740  40.988  0.00  0.00     0.703 A 
ATOM     19  N5  <0> d          39.110  47.240  41.098  0.00  0.00    -0.152 N 
ATOM     20  H2  <0> d          39.324  46.342  40.712  0.00  0.00     0.187 HD
ATOM     21  O4  <0> d          41.207  47.517  41.834  0.00  0.00    -0.265 OA
ATOM     22  N7  <0> d          36.898  46.987  40.343  0.00  0.00    -0.233 N 
ATOM     23  H16 <0> d          36.507  46.217  40.786  0.00  0.00     0.174 HD
ATOM     24  H17 <0> d          36.621  47.223  39.445  0.00  0.00     0.174 HD
ATOM     25  C7  <0> d          46.908  49.166  45.158  0.00  0.00     0.252 C 
ATOM     26  O1  <0> d          47.807  49.763  44.598  0.00  0.00    -0.268 OA
ATOM     27  N1  <0> d          47.152  47.976  45.744  0.00  0.00    -0.342 N 
ATOM     28  H7  <0> d          46.434  47.499  46.190  0.00  0.00     0.163 HD
ATOM     29  C8  <0> d          48.500  47.404  45.710  0.00  0.00     0.186 C 
ATOM     30  C9  <0> d          48.429  45.958  45.219  0.00  0.00     0.046 C 
ATOM     31  C10 <0> d          47.093  45.342  45.638  0.00  0.00     0.116 C 
ATOM     32  C11 <0> d          47.033  43.909  45.177  0.00  0.00     0.172 C 
ATOM     33  O2  <0> d          47.896  43.131  45.508  0.00  0.00    -0.648 OA
ATOM     34  O5  <0> d          46.020  43.496  44.397  0.00  0.00    -0.648 OA
ATOM     35  C12 <0> d          49.095  47.436  47.095  0.00  0.00     0.196 C 
ATOM     36  O3  <0> d          49.682  46.470  47.523  0.00  0.00    -0.646 OA
ATOM     37  O6  <0> d          48.973  48.537  47.852  0.00  0.00    -0.646 OA
ENDMDL
MODEL 8
REMARK VINA RESULT:      -8.9      6.968     10.983
ATOM      1  C1  <0> d          45.476  51.234  45.087  0.00  0.00     0.019 A 
ATOM      2  C2  <0> d          44.442  52.134  45.199  0.00  0.00     0.030 A 
ATOM      3  C3  <0> d          43.135  51.680  45.354  0.00  0.00     0.028 A 
ATOM      4  C4  <0> d          42.870  50.314  45.394  0.00  0.00     0.030 A 
ATOM      5  C5  <0> d          43.900  49.408  45.280  0.00  0.00     0.019 A 
ATOM      6  C6  <0> d          45.214  49.861  45.125  0.00  0.00     0.032 A 
ATOM      7  N2  <0> d          42.093  52.592  45.469  0.00  0.00    -0.384 N 
ATOM      8  H12 <0> d          42.283  53.526  45.652  0.00  0.00     0.160 HD
ATOM      9  C13 <0> d          40.706  52.144  45.314  0.00  0.00     0.180 C 
ATOM     10  C14 <0> d          40.300  52.259  43.867  0.00  0.00     0.070 A 
ATOM     11  N4  <0> d          39.987  51.174  43.187  0.00  0.00    -0.241 NA
ATOM     12  C17 <0> d          39.626  51.278  41.915  0.00  0.00     0.174 A 
ATOM     13  C16 <0> d          39.587  52.546  41.289  0.00  0.00     0.202 A 
ATOM     14  C18 <0> d          39.262  50.098  41.112  0.00  0.00     0.292 A 
ATOM     15  N3  <0> d          39.912  53.632  41.993  0.00  0.00    -0.237 NA
ATOM     16  N6  <0> d          39.221  52.629  39.997  0.00  0.00    -0.043 NA
ATOM     17  C15 <0> d          40.264  53.509  43.257  0.00  0.00     0.147 A 
ATOM     18  C19 <0> d          38.901  51.565  39.302  0.00  0.00     0.703 A 
ATOM     19  N5  <0> d          38.911  50.303  39.822  0.00  0.00    -0.152 N 
ATOM     20  H2  <0> d          38.656  49.527  39.247  0.00  0.00     0.187 HD
ATOM     21  O4  <0> d          39.275  48.980  41.592  0.00  0.00    -0.265 OA
ATOM     22  N7  <0> d          38.539  51.727  37.990  0.00  0.00    -0.233 N 
ATOM     23  H16 <0> d          38.322  52.610  37.653  0.00  0.00     0.174 HD
ATOM     24  H17 <0> d          38.499  50.959  37.400  0.00  0.00     0.174 HD
ATOM     25  C7  <0> d          46.320  48.893  45.009  0.00  0.00     0.252 C 
ATOM     26  O1  <0> d          46.712  48.544  43.912  0.00  0.00    -0.268 OA
ATOM     27  N1  <0> d          46.895  48.392  46.121  0.00  0.00    -0.342 N 
ATOM     28  H7  <0> d          46.582  48.670  46.997  0.00  0.00     0.163 HD
ATOM     29  C8  <0> d          47.995  47.430  46.008  0.00  0.00     0.186 C 
ATOM     30  C9  <0> d          47.430  46.009  45.995  0.00  0.00     0.046 C 
ATOM     31  C10 <0> d          48.040  45.227  44.830  0.00  0.00     0.116 C 
ATOM     32  C11 <0> d          47.492  43.825  44.822  0.00  0.00     0.172 C 
ATOM     33  O2  <0> d          46.504  43.565  44.177  0.00  0.00    -0.648 OA
ATOM     34  O5  <0> d          48.100  42.862  45.534  0.00  0.00    -0.648 OA
ATOM     35  C12 <0> d          48.926  47.590  47.183  0.00  0.00     0.196 C 
ATOM     36  O3  <0> d          49.630  46.669  47.525  0.00  0.00    -0.646 OA
ATOM     37  O6  <0> d          48.973  48.754  47.847  0.00  0.00    -0.646 OA
ENDMDL
MODEL 9
REMARK VINA RESULT:      -8.7      3.048      8.956
ATOM      1  C1  <0> d          51.373  48.297  44.281  0.00  0.00     0.019 A 
ATOM      2  C2  <0> d          52.001  47.592  43.281  0.00  0.00     0.030 A 
ATOM      3  C3  <0> d          51.735  47.886  41.947  0.00  0.00     0.028 A 
ATOM      4  C4  <0> d          50.833  48.896  41.620  0.00  0.00     0.030 A 
ATOM      5  C5  <0> d          50.201  49.604  42.616  0.00  0.00     0.019 A 
ATOM      6  C6  <0> d          50.466  49.311  43.957  0.00  0.00     0.032 A 
ATOM      7  N2  <0> d          52.372  47.172  40.938  0.00  0.00    -0.384 N 
ATOM      8  H12 <0> d          53.300  47.356  40.725  0.00  0.00     0.160 HD
ATOM      9  C13 <0> d          51.640  46.142  40.196  0.00  0.00     0.180 C 
ATOM     10  C14 <0> d          51.354  46.637  38.801  0.00  0.00     0.070 A 
ATOM     11  N4  <0> d          51.778  47.828  38.430  0.00  0.00    -0.241 NA
ATOM     12  C17 <0> d          51.529  48.261  37.201  0.00  0.00     0.174 A 
ATOM     13  C16 <0> d          50.803  47.449  36.297  0.00  0.00     0.202 A 
ATOM     14  C18 <0> d          51.984  49.582  36.735  0.00  0.00     0.292 A 
ATOM     15  N3  <0> d          50.379  46.248  36.692  0.00  0.00    -0.237 NA
ATOM     16  N6  <0> d          50.559  47.908  35.056  0.00  0.00    -0.043 NA
ATOM     17  C15 <0> d          50.640  45.835  37.916  0.00  0.00     0.147 A 
ATOM     18  C19 <0> d          50.974  49.088  34.662  0.00  0.00     0.703 A 
ATOM     19  N5  <0> d          51.679  49.936  35.466  0.00  0.00    -0.152 N 
ATOM     20  H2  <0> d          51.972  50.825  35.114  0.00  0.00     0.187 HD
ATOM     21  O4  <0> d          52.613  50.326  37.464  0.00  0.00    -0.265 OA
ATOM     22  N7  <0> d          50.686  49.487  33.383  0.00  0.00    -0.233 N 
ATOM     23  H16 <0> d          49.782  49.404  33.042  0.00  0.00     0.174 HD
ATOM     24  H17 <0> d          51.386  49.852  32.821  0.00  0.00     0.174 HD
ATOM     25  C7  <0> d          49.795  50.073  45.026  0.00  0.00     0.252 C 
ATOM     26  O1  <0> d          50.453  50.717  45.820  0.00  0.00    -0.268 OA
ATOM     27  N1  <0> d          48.450  50.053  45.124  0.00  0.00    -0.342 N 
ATOM     28  H7  <0> d          47.925  49.539  44.491  0.00  0.00     0.163 HD
ATOM     29  C8  <0> d          47.781  50.810  46.186  0.00  0.00     0.186 C 
ATOM     30  C9  <0> d          47.347  49.855  47.298  0.00  0.00     0.046 C 
ATOM     31  C10 <0> d          47.473  48.410  46.808  0.00  0.00     0.116 C 
ATOM     32  C11 <0> d          48.637  47.745  47.495  0.00  0.00     0.172 C 
ATOM     33  O2  <0> d          49.310  48.367  48.282  0.00  0.00    -0.648 OA
ATOM     34  O5  <0> d          48.928  46.461  47.232  0.00  0.00    -0.648 OA
ATOM     35  C12 <0> d          46.570  51.506  45.620  0.00  0.00     0.196 C 
ATOM     36  O3  <0> d          45.789  50.895  44.931  0.00  0.00    -0.646 OA
ATOM     37  O6  <0> d          46.359  52.805  45.884  0.00  0.00    -0.646 OA
ENDMDL
MODEL 10
REMARK VINA RESULT:      -8.6      2.979      8.539
ATOM      1  C1  <0> d          51.354  48.285  44.105  0.00  0.00     0.019 A 
ATOM      2  C2  <0> d          52.011  48.287  42.897  0.00  0.00     0.030 A 
ATOM      3  C3  <0> d          51.893  47.199  42.037  0.00  0.00     0.028 A 
ATOM      4  C4  <0> d          51.110  46.105  42.397  0.00  0.00     0.030 A 
ATOM      5  C5  <0> d          50.451  46.097  43.606  0.00  0.00     0.019 A 
ATOM      6  C6  <0> d          50.568  47.189  44.472  0.00  0.00     0.032 A 
ATOM      7  N2  <0> d          52.557  47.204  40.816  0.00  0.00    -0.384 N 
ATOM      8  H12 <0> d          53.520  47.319  40.788  0.00  0.00     0.160 HD
ATOM      9  C13 <0> d          51.803  47.036  39.571  0.00  0.00     0.180 C 
ATOM     10  C14 <0> d          51.208  48.359  39.161  0.00  0.00     0.070 A 
ATOM     11  N4  <0> d          50.193  48.856  39.838  0.00  0.00    -0.241 NA
ATOM     12  C17 <0> d          49.674  50.023  39.479  0.00  0.00     0.174 A 
ATOM     13  C16 <0> d          50.201  50.723  38.369  0.00  0.00     0.202 A 
ATOM     14  C18 <0> d          48.542  50.625  40.204  0.00  0.00     0.292 A 
ATOM     15  N3  <0> d          51.227  50.201  37.694  0.00  0.00    -0.237 NA
ATOM     16  N6  <0> d          49.658  51.903  38.020  0.00  0.00    -0.043 NA
ATOM     17  C15 <0> d          51.732  49.043  38.069  0.00  0.00     0.147 A 
ATOM     18  C19 <0> d          48.650  52.421  38.680  0.00  0.00     0.703 A 
ATOM     19  N5  <0> d          48.078  51.816  39.761  0.00  0.00    -0.152 N 
ATOM     20  H2  <0> d          47.312  52.256  40.229  0.00  0.00     0.187 HD
ATOM     21  O4  <0> d          48.043  50.073  41.167  0.00  0.00    -0.265 OA
ATOM     22  N7  <0> d          48.149  53.627  38.265  0.00  0.00    -0.233 N 
ATOM     23  H16 <0> d          47.578  53.671  37.482  0.00  0.00     0.174 HD
ATOM     24  H17 <0> d          48.365  54.436  38.754  0.00  0.00     0.174 HD
ATOM     25  C7  <0> d          49.858  47.185  45.764  0.00  0.00     0.252 C 
ATOM     26  O1  <0> d          50.109  46.332  46.594  0.00  0.00    -0.268 OA
ATOM     27  N1  <0> d          48.929  48.127  46.024  0.00  0.00    -0.342 N 
ATOM     28  H7  <0> d          48.728  48.807  45.362  0.00  0.00     0.163 HD
ATOM     29  C8  <0> d          48.223  48.125  47.308  0.00  0.00     0.186 C 
ATOM     30  C9  <0> d          46.768  48.545  47.091  0.00  0.00     0.046 C 
ATOM     31  C10 <0> d          46.006  47.409  46.405  0.00  0.00     0.116 C 
ATOM     32  C11 <0> d          45.578  47.850  45.030  0.00  0.00     0.172 C 
ATOM     33  O2  <0> d          44.419  47.758  44.699  0.00  0.00    -0.648 OA
ATOM     34  O5  <0> d          46.483  48.344  44.170  0.00  0.00    -0.648 OA
ATOM     35  C12 <0> d          48.890  49.093  48.251  0.00  0.00     0.196 C 
ATOM     36  O3  <0> d          49.482  48.681  49.220  0.00  0.00    -0.646 OA
ATOM     37  O6  <0> d          48.828  50.412  48.012  0.00  0.00    -0.646 OA
ENDMDL
