MODEL
REMARK VINA RESULT:      -9.1    
REMARK AD4  RESULT:      -9.81   
REMARK FIN. RESULT:      -9.45   
ATOM      1  C1  <0> d          51.508  51.774  40.471  0.00  0.00     0.021 C 
ATOM      2  C2  <0> d          52.235  51.249  39.234  0.00  0.00    -0.012 C 
ATOM      3  C3  <0> d          53.741  51.507  39.397  0.00  0.00     0.022 C 
ATOM      4  C4  <0> d          54.015  53.002  39.544  0.00  0.00     0.084 C 
ATOM      5  C5  <0> d          53.378  53.755  38.406  0.00  0.00     0.149 C 
ATOM      6  O1  <0> d          53.795  54.857  38.107  0.00  0.00    -0.293 OA
ATOM      7  C6  <0> d          52.315  53.198  37.683  0.00  0.00     0.058 C 
ATOM      8  C7  <0> d          51.755  52.012  38.024  0.00  0.00    -0.046 C 
ATOM      9  C8  <0> d          50.661  51.486  37.215  0.00  0.00     0.004 C 
ATOM     10  C9  <0> d          50.142  50.292  37.451  0.00  0.00    -0.021 C 
ATOM     11  C10 <0> d          50.652  49.363  38.514  0.00  0.00     0.018 C 
ATOM     12  C11 <0> d          52.020  49.753  39.042  0.00  0.00     0.006 C 
ATOM     13  C12 <0> d          52.468  48.956  40.256  0.00  0.00     0.007 C 
ATOM     14  C13 <0> d          51.388  48.694  41.308  0.00  0.00     0.013 C 
ATOM     15  C14 <0> d          50.143  48.159  40.642  0.00  0.00    -0.009 C 
ATOM     16  C15 <0> d          49.646  49.215  39.628  0.00  0.00     0.005 C 
ATOM     17  C16 <0> d          48.277  48.646  39.225  0.00  0.00     0.009 C 
ATOM     18  C17 <0> d          47.706  48.110  40.564  0.00  0.00     0.039 C 
ATOM     19  C18 <0> d          48.912  47.938  41.524  0.00  0.00     0.066 C 
ATOM     20  C22 <0> d          50.463  46.829  39.950  0.00  0.00     0.019 C 
ATOM     21  C19 <0> d          48.834  48.957  42.656  0.00  0.00     0.049 C 
ATOM     22  C20 <0> d          48.709  48.225  43.994  0.00  0.00     0.116 C 
ATOM     23  C21 <0> d          49.716  48.782  44.967  0.00  0.00     0.172 C 
ATOM     24  O2  <0> d          50.534  49.589  44.595  0.00  0.00    -0.648 OA
ATOM     25  O4  <0> d          49.702  48.381  46.248  0.00  0.00    -0.648 OA
ATOM     26  O3  <0> d          48.930  46.609  42.052  0.00  0.00    -0.389 OA
ATOM     27  H26 <0> d          48.133  46.097  41.857  0.00  0.00     0.210 HD
ENDMDL
MODEL
REMARK VINA RESULT:      -8.7    
REMARK AD4  RESULT:      -9.84   
REMARK FIN. RESULT:      -9.25   
ATOM      1  C1  <0> d          48.796  47.766  40.711  0.00  0.00     0.021 C 
ATOM      2  C2  <0> d          49.863  48.804  40.366  0.00  0.00    -0.012 C 
ATOM      3  C3  <0> d          49.224  49.902  39.501  0.00  0.00     0.022 C 
ATOM      4  C4  <0> d          48.664  49.308  38.211  0.00  0.00     0.084 C 
ATOM      5  C5  <0> d          49.729  48.509  37.508  0.00  0.00     0.149 C 
ATOM      6  O1  <0> d          49.635  48.301  36.314  0.00  0.00    -0.293 OA
ATOM      7  C6  <0> d          50.832  48.007  38.212  0.00  0.00     0.058 C 
ATOM      8  C7  <0> d          50.948  48.138  39.557  0.00  0.00    -0.046 C 
ATOM      9  C8  <0> d          52.132  47.605  40.221  0.00  0.00     0.004 C 
ATOM     10  C9  <0> d          52.336  47.786  41.515  0.00  0.00    -0.021 C 
ATOM     11  C10 <0> d          51.417  48.584  42.395  0.00  0.00     0.018 C 
ATOM     12  C11 <0> d          50.448  49.453  41.614  0.00  0.00     0.006 C 
ATOM     13  C12 <0> d          49.375  50.109  42.468  0.00  0.00     0.007 C 
ATOM     14  C13 <0> d          48.763  49.222  43.554  0.00  0.00     0.013 C 
ATOM     15  C14 <0> d          49.860  48.551  44.346  0.00  0.00    -0.009 C 
ATOM     16  C15 <0> d          50.700  47.690  43.375  0.00  0.00     0.005 C 
ATOM     17  C16 <0> d          51.595  46.903  44.344  0.00  0.00     0.009 C 
ATOM     18  C17 <0> d          50.633  46.554  45.511  0.00  0.00     0.039 C 
ATOM     19  C18 <0> d          49.438  47.537  45.412  0.00  0.00     0.066 C 
ATOM     20  C22 <0> d          50.721  49.617  45.034  0.00  0.00     0.019 C 
ATOM     21  C19 <0> d          48.171  46.788  45.014  0.00  0.00     0.049 C 
ATOM     22  C20 <0> d          48.142  45.428  45.711  0.00  0.00     0.116 C 
ATOM     23  C21 <0> d          47.991  44.337  44.681  0.00  0.00     0.172 C 
ATOM     24  O2  <0> d          48.021  44.609  43.504  0.00  0.00    -0.648 OA
ATOM     25  O4  <0> d          47.825  43.065  45.071  0.00  0.00    -0.648 OA
ATOM     26  O3  <0> d          49.248  48.204  46.663  0.00  0.00    -0.389 OA
ATOM     27  H26 <0> d          48.369  48.079  47.047  0.00  0.00     0.210 HD
ENDMDL
MODEL
REMARK VINA RESULT:      -8.8    
REMARK AD4  RESULT:      -9.62   
REMARK FIN. RESULT:      -9.20   
ATOM      1  C1  <0> d          51.910  48.599  39.934  0.00  0.00     0.021 C 
ATOM      2  C2  <0> d          50.626  47.801  39.711  0.00  0.00    -0.012 C 
ATOM      3  C3  <0> d          49.933  47.588  41.066  0.00  0.00     0.022 C 
ATOM      4  C4  <0> d          50.844  46.816  42.017  0.00  0.00     0.084 C 
ATOM      5  C5  <0> d          51.319  45.549  41.358  0.00  0.00     0.149 C 
ATOM      6  O1  <0> d          51.701  44.621  42.046  0.00  0.00    -0.293 OA
ATOM      7  C6  <0> d          51.318  45.421  39.963  0.00  0.00     0.058 C 
ATOM      8  C7  <0> d          50.983  46.448  39.147  0.00  0.00    -0.046 C 
ATOM      9  C8  <0> d          50.990  46.238  37.703  0.00  0.00     0.004 C 
ATOM     10  C9  <0> d          50.583  47.179  36.867  0.00  0.00    -0.021 C 
ATOM     11  C10 <0> d          50.037  48.505  37.315  0.00  0.00     0.018 C 
ATOM     12  C11 <0> d          49.660  48.529  38.784  0.00  0.00     0.006 C 
ATOM     13  C12 <0> d          49.302  49.909  39.311  0.00  0.00     0.007 C 
ATOM     14  C13 <0> d          50.193  51.053  38.823  0.00  0.00     0.013 C 
ATOM     15  C14 <0> d          50.343  50.983  37.323  0.00  0.00    -0.009 C 
ATOM     16  C15 <0> d          50.986  49.623  36.964  0.00  0.00     0.005 C 
ATOM     17  C16 <0> d          51.289  49.802  35.468  0.00  0.00     0.009 C 
ATOM     18  C17 <0> d          51.787  51.268  35.379  0.00  0.00     0.039 C 
ATOM     19  C18 <0> d          51.291  51.986  36.662  0.00  0.00     0.066 C 
ATOM     20  C22 <0> d          48.967  51.140  36.663  0.00  0.00     0.019 C 
ATOM     21  C19 <0> d          52.471  52.330  37.564  0.00  0.00     0.049 C 
ATOM     22  C20 <0> d          52.551  53.848  37.742  0.00  0.00     0.116 C 
ATOM     23  C21 <0> d          53.692  54.185  38.668  0.00  0.00     0.172 C 
ATOM     24  O2  <0> d          54.146  53.338  39.400  0.00  0.00    -0.648 OA
ATOM     25  O4  <0> d          54.201  55.426  38.679  0.00  0.00    -0.648 OA
ATOM     26  O3  <0> d          50.571  53.170  36.311  0.00  0.00    -0.389 OA
ATOM     27  H26 <0> d          50.426  53.776  37.052  0.00  0.00     0.210 HD
ENDMDL
MODEL
REMARK VINA RESULT:      -8.5    
REMARK AD4  RESULT:      -9.49   
REMARK FIN. RESULT:      -8.98   
ATOM      1  C1  <0> d          46.257  49.311  45.089  0.00  0.00     0.021 C 
ATOM      2  C2  <0> d          46.829  50.488  44.303  0.00  0.00    -0.012 C 
ATOM      3  C3  <0> d          46.563  51.784  45.086  0.00  0.00     0.022 C 
ATOM      4  C4  <0> d          45.063  51.992  45.280  0.00  0.00     0.084 C 
ATOM      5  C5  <0> d          44.357  51.915  43.953  0.00  0.00     0.149 C 
ATOM      6  O1  <0> d          43.268  52.438  43.820  0.00  0.00    -0.293 OA
ATOM      7  C6  <0> d          44.944  51.254  42.865  0.00  0.00     0.058 C 
ATOM      8  C7  <0> d          46.116  50.584  42.977  0.00  0.00    -0.046 C 
ATOM      9  C8  <0> d          46.677  49.933  41.798  0.00  0.00     0.004 C 
ATOM     10  C9  <0> d          47.861  49.343  41.834  0.00  0.00    -0.021 C 
ATOM     11  C10 <0> d          48.746  49.335  43.046  0.00  0.00     0.018 C 
ATOM     12  C11 <0> d          48.332  50.353  44.093  0.00  0.00     0.006 C 
ATOM     13  C12 <0> d          49.079  50.225  45.411  0.00  0.00     0.007 C 
ATOM     14  C13 <0> d          49.300  48.796  45.909  0.00  0.00     0.013 C 
ATOM     15  C14 <0> d          49.863  47.947  44.794  0.00  0.00    -0.009 C 
ATOM     16  C15 <0> d          48.851  47.948  43.627  0.00  0.00     0.005 C 
ATOM     17  C16 <0> d          49.436  46.873  42.698  0.00  0.00     0.009 C 
ATOM     18  C17 <0> d          49.919  45.777  43.684  0.00  0.00     0.039 C 
ATOM     19  C18 <0> d          50.051  46.453  45.073  0.00  0.00     0.066 C 
ATOM     20  C22 <0> d          51.220  48.511  44.356  0.00  0.00     0.019 C 
ATOM     21  C19 <0> d          48.987  45.915  46.024  0.00  0.00     0.049 C 
ATOM     22  C20 <0> d          48.427  44.602  45.475  0.00  0.00     0.116 C 
ATOM     23  C21 <0> d          46.922  44.665  45.458  0.00  0.00     0.172 C 
ATOM     24  O2  <0> d          46.341  45.432  46.187  0.00  0.00    -0.648 OA
ATOM     25  O4  <0> d          46.227  43.869  44.630  0.00  0.00    -0.648 OA
ATOM     26  O3  <0> d          51.358  46.223  45.608  0.00  0.00    -0.389 OA
ATOM     27  H26 <0> d          51.364  45.677  46.405  0.00  0.00     0.210 HD
ENDMDL
