MODEL
REMARK VINA RESULT:      -8.5    
REMARK AD4  RESULT:      -8.54   
REMARK FIN. RESULT:      -8.52   
ATOM      1  C1  <0> d          46.221  49.381  45.125  0.00  0.00     0.021 C 
ATOM      2  C2  <0> d          46.789  50.539  44.306  0.00  0.00    -0.012 C 
ATOM      3  C3  <0> d          46.543  51.852  45.068  0.00  0.00     0.022 C 
ATOM      4  C4  <0> d          45.048  52.073  45.281  0.00  0.00     0.084 C 
ATOM      5  C5  <0> d          44.321  51.975  43.967  0.00  0.00     0.149 C 
ATOM      6  O1  <0> d          43.232  52.502  43.841  0.00  0.00    -0.293 OA
ATOM      7  C6  <0> d          44.886  51.289  42.883  0.00  0.00     0.058 C 
ATOM      8  C7  <0> d          46.056  50.614  42.991  0.00  0.00    -0.046 C 
ATOM      9  C8  <0> d          46.593  49.934  41.815  0.00  0.00     0.004 C 
ATOM     10  C9  <0> d          47.774  49.340  41.844  0.00  0.00    -0.021 C 
ATOM     11  C10 <0> d          48.679  49.349  43.043  0.00  0.00     0.018 C 
ATOM     12  C11 <0> d          48.288  50.389  44.075  0.00  0.00     0.006 C 
ATOM     13  C12 <0> d          49.054  50.283  45.384  0.00  0.00     0.007 C 
ATOM     14  C13 <0> d          49.274  48.863  45.906  0.00  0.00     0.013 C 
ATOM     15  C14 <0> d          49.814  47.987  44.800  0.00  0.00    -0.009 C 
ATOM     16  C15 <0> d          48.784  47.972  43.649  0.00  0.00     0.005 C 
ATOM     17  C16 <0> d          49.348  46.877  42.732  0.00  0.00     0.009 C 
ATOM     18  C17 <0> d          49.840  45.797  43.731  0.00  0.00     0.039 C 
ATOM     19  C18 <0> d          49.998  46.498  45.104  0.00  0.00     0.066 C 
ATOM     20  C22 <0> d          51.167  48.534  44.329  0.00  0.00     0.019 C 
ATOM     21  C19 <0> d          48.945  45.987  46.082  0.00  0.00     0.049 C 
ATOM     22  C20 <0> d          48.465  44.604  45.639  0.00  0.00     0.116 C 
ATOM     23  C21 <0> d          46.960  44.597  45.555  0.00  0.00     0.172 C 
ATOM     24  O2  <0> d          46.343  43.602  45.851  0.00  0.00    -0.648 OA
ATOM     25  O4  <0> d          46.307  45.698  45.151  0.00  0.00    -0.648 OA
ATOM     26  O3  <0> d          51.311  46.270  45.623  0.00  0.00    -0.389 OA
ATOM     27  H26 <0> d          51.512  45.339  45.789  0.00  0.00     0.210 HD
ENDMDL
MODEL
REMARK VINA RESULT:      -9.4    
REMARK AD4  RESULT:      -8.41   
REMARK FIN. RESULT:      -8.89   
ATOM      1  C1  <0> d          51.931  48.663  41.041  0.00  0.00     0.021 C 
ATOM      2  C2  <0> d          50.805  47.656  41.268  0.00  0.00    -0.012 C 
ATOM      3  C3  <0> d          50.105  47.984  42.597  0.00  0.00     0.022 C 
ATOM      4  C4  <0> d          51.095  47.901  43.756  0.00  0.00     0.084 C 
ATOM      5  C5  <0> d          51.796  46.570  43.739  0.00  0.00     0.149 C 
ATOM      6  O1  <0> d          52.299  46.142  44.760  0.00  0.00    -0.293 OA
ATOM      7  C6  <0> d          51.869  45.812  42.562  0.00  0.00     0.058 C 
ATOM      8  C7  <0> d          51.400  46.275  41.378  0.00  0.00    -0.046 C 
ATOM      9  C8  <0> d          51.496  45.424  40.196  0.00  0.00     0.004 C 
ATOM     10  C9  <0> d          50.972  45.791  39.039  0.00  0.00    -0.021 C 
ATOM     11  C10 <0> d          50.200  47.063  38.846  0.00  0.00     0.018 C 
ATOM     12  C11 <0> d          49.768  47.703  40.153  0.00  0.00     0.006 C 
ATOM     13  C12 <0> d          49.168  49.091  39.995  0.00  0.00     0.007 C 
ATOM     14  C13 <0> d          49.877  50.006  38.997  0.00  0.00     0.013 C 
ATOM     15  C14 <0> d          50.092  49.276  37.694  0.00  0.00    -0.009 C 
ATOM     16  C15 <0> d          50.963  48.030  37.976  0.00  0.00     0.005 C 
ATOM     17  C16 <0> d          51.290  47.542  36.557  0.00  0.00     0.009 C 
ATOM     18  C17 <0> d          51.543  48.860  35.779  0.00  0.00     0.039 C 
ATOM     19  C18 <0> d          50.887  49.998  36.603  0.00  0.00     0.066 C 
ATOM     20  C22 <0> d          48.736  48.882  37.096  0.00  0.00     0.019 C 
ATOM     21  C19 <0> d          51.960  50.909  37.192  0.00  0.00     0.049 C 
ATOM     22  C20 <0> d          51.593  52.370  36.922  0.00  0.00     0.116 C 
ATOM     23  C21 <0> d          52.432  53.267  37.794  0.00  0.00     0.172 C 
ATOM     24  O2  <0> d          52.727  54.375  37.413  0.00  0.00    -0.648 OA
ATOM     25  O4  <0> d          52.852  52.836  38.992  0.00  0.00    -0.648 OA
ATOM     26  O3  <0> d          49.995  50.750  35.776  0.00  0.00    -0.389 OA
ATOM     27  H26 <0> d          50.033  50.512  34.840  0.00  0.00     0.210 HD
ENDMDL
MODEL
REMARK VINA RESULT:      -9.3    
REMARK AD4  RESULT:      -8.51   
REMARK FIN. RESULT:      -8.90   
ATOM      1  C1  <0> d          49.722  48.468  39.165  0.00  0.00     0.021 C 
ATOM      2  C2  <0> d          51.084  47.912  38.753  0.00  0.00    -0.012 C 
ATOM      3  C3  <0> d          51.734  48.879  37.750  0.00  0.00     0.022 C 
ATOM      4  C4  <0> d          50.856  49.030  36.510  0.00  0.00     0.084 C 
ATOM      5  C5  <0> d          50.532  47.676  35.940  0.00  0.00     0.149 C 
ATOM      6  O1  <0> d          50.209  47.576  34.772  0.00  0.00    -0.293 OA
ATOM      7  C6  <0> d          50.607  46.525  36.738  0.00  0.00     0.058 C 
ATOM      8  C7  <0> d          50.881  46.585  38.063  0.00  0.00    -0.046 C 
ATOM      9  C8  <0> d          50.958  45.345  38.828  0.00  0.00     0.004 C 
ATOM     10  C9  <0> d          51.312  45.342  40.102  0.00  0.00    -0.021 C 
ATOM     11  C10 <0> d          51.710  46.579  40.854  0.00  0.00     0.018 C 
ATOM     12  C11 <0> d          52.018  47.756  39.946  0.00  0.00     0.006 C 
ATOM     13  C12 <0> d          52.221  49.071  40.682  0.00  0.00     0.007 C 
ATOM     14  C13 <0> d          51.249  49.340  41.831  0.00  0.00     0.013 C 
ATOM     15  C14 <0> d          51.174  48.133  42.734  0.00  0.00    -0.009 C 
ATOM     16  C15 <0> d          50.678  46.932  41.895  0.00  0.00     0.005 C 
ATOM     17  C16 <0> d          50.426  45.872  42.978  0.00  0.00     0.009 C 
ATOM     18  C17 <0> d          49.797  46.690  44.136  0.00  0.00     0.039 C 
ATOM     19  C18 <0> d          50.166  48.175  43.885  0.00  0.00     0.066 C 
ATOM     20  C22 <0> d          52.556  47.857  43.337  0.00  0.00     0.019 C 
ATOM     21  C19 <0> d          48.920  48.974  43.519  0.00  0.00     0.049 C 
ATOM     22  C20 <0> d          48.688  50.066  44.565  0.00  0.00     0.116 C 
ATOM     23  C21 <0> d          48.936  51.417  43.944  0.00  0.00     0.172 C 
ATOM     24  O2  <0> d          48.484  51.672  42.853  0.00  0.00    -0.648 OA
ATOM     25  O4  <0> d          49.656  52.335  44.604  0.00  0.00    -0.648 OA
ATOM     26  O3  <0> d          50.787  48.728  45.048  0.00  0.00    -0.389 OA
ATOM     27  H26 <0> d          50.632  48.219  45.856  0.00  0.00     0.210 HD
ENDMDL
MODEL
REMARK VINA RESULT:      -8.7    
REMARK AD4  RESULT:      -9.59   
REMARK FIN. RESULT:      -9.13   
ATOM      1  C1  <0> d          48.791  47.680  40.729  0.00  0.00     0.021 C 
ATOM      2  C2  <0> d          49.833  48.741  40.381  0.00  0.00    -0.012 C 
ATOM      3  C3  <0> d          49.170  49.820  39.508  0.00  0.00     0.022 C 
ATOM      4  C4  <0> d          48.629  49.206  38.220  0.00  0.00     0.084 C 
ATOM      5  C5  <0> d          49.715  48.429  37.525  0.00  0.00     0.149 C 
ATOM      6  O1  <0> d          49.629  48.211  36.331  0.00  0.00    -0.293 OA
ATOM      7  C6  <0> d          50.828  47.958  38.235  0.00  0.00     0.058 C 
ATOM      8  C7  <0> d          50.936  48.099  39.578  0.00  0.00    -0.046 C 
ATOM      9  C8  <0> d          52.131  47.597  40.249  0.00  0.00     0.004 C 
ATOM     10  C9  <0> d          52.327  47.790  41.543  0.00  0.00    -0.021 C 
ATOM     11  C10 <0> d          51.386  48.570  42.416  0.00  0.00     0.018 C 
ATOM     12  C11 <0> d          50.400  49.410  41.627  0.00  0.00     0.006 C 
ATOM     13  C12 <0> d          49.308  50.045  42.475  0.00  0.00     0.007 C 
ATOM     14  C13 <0> d          48.715  49.150  43.563  0.00  0.00     0.013 C 
ATOM     15  C14 <0> d          49.824  48.509  44.362  0.00  0.00    -0.009 C 
ATOM     16  C15 <0> d          50.688  47.665  43.399  0.00  0.00     0.005 C 
ATOM     17  C16 <0> d          51.599  46.903  44.374  0.00  0.00     0.009 C 
ATOM     18  C17 <0> d          50.643  46.539  45.541  0.00  0.00     0.039 C 
ATOM     19  C18 <0> d          49.425  47.491  45.434  0.00  0.00     0.066 C 
ATOM     20  C22 <0> d          50.658  49.600  45.047  0.00  0.00     0.019 C 
ATOM     21  C19 <0> d          48.177  46.710  45.035  0.00  0.00     0.049 C 
ATOM     22  C20 <0> d          48.151  45.375  45.780  0.00  0.00     0.116 C 
ATOM     23  C21 <0> d          47.988  44.250  44.790  0.00  0.00     0.172 C 
ATOM     24  O2  <0> d          47.827  43.119  45.181  0.00  0.00    -0.648 OA
ATOM     25  O4  <0> d          48.022  44.507  43.473  0.00  0.00    -0.648 OA
ATOM     26  O3  <0> d          49.216  48.160  46.680  0.00  0.00    -0.389 OA
ATOM     27  H26 <0> d          49.136  49.121  46.602  0.00  0.00     0.210 HD
ENDMDL
