MODEL 1
REMARK VINA RESULT:      -6.9      0.000      0.000
ATOM      1  C8  <0> d          50.469  47.753  41.616  0.00  0.00     0.188 C 
ATOM      2  C9  <0> d          51.045  46.607  42.450  0.00  0.00     0.246 C 
ATOM      3  C10 <0> d          51.594  47.161  43.766  0.00  0.00     0.182 C 
ATOM      4  C11 <0> d          50.467  47.841  44.543  0.00  0.00     0.184 C 
ATOM      5  C12 <0> d          49.892  48.988  43.710  0.00  0.00     0.247 C 
ATOM      6  C13 <0> d          49.341  48.434  42.393  0.00  0.00     0.182 C 
ATOM      7  O2  <0> d          49.954  47.235  40.387  0.00  0.00    -0.349 OA
ATOM      8  C7  <0> d          50.844  47.379  39.277  0.00  0.00     0.291 C 
ATOM      9  C6  <0> d          50.732  46.152  38.369  0.00  0.00     0.238 C 
ATOM     10  C5  <0> d          49.307  46.066  37.814  0.00  0.00     0.040 C 
ATOM     11  C4  <0> d          48.979  47.367  37.075  0.00  0.00     0.036 C 
ATOM     12  C3  <0> d          49.158  48.548  38.034  0.00  0.00     0.154 C 
ATOM     13  O1  <0> d          50.496  48.552  38.537  0.00  0.00    -0.352 OA
ATOM     14  N3  <0> d          51.013  44.942  39.161  0.00  0.00    -0.070 N 
ATOM     15  H28 <0> d          51.515  44.262  38.592  0.00  0.00     0.274 HD
ATOM     16  H29 <0> d          51.575  45.180  39.977  0.00  0.00     0.274 HD
ATOM     17  H35 <0> d          50.126  44.530  39.473  0.00  0.00     0.274 HD
ATOM     18  C2  <0> d          48.891  49.856  37.286  0.00  0.00     0.208 C 
ATOM     19  C1  <0> d          50.005  50.095  36.265  0.00  0.00     0.042 C 
ATOM     20  N4  <0> d          48.840  50.963  38.258  0.00  0.00    -0.073 N 
ATOM     21  H30 <0> d          49.774  51.339  38.409  0.00  0.00     0.274 HD
ATOM     22  H31 <0> d          48.228  51.702  37.914  0.00  0.00     0.274 HD
ATOM     23  H36 <0> d          48.472  50.611  39.149  0.00  0.00     0.274 HD
ATOM     24  O3  <0> d          48.312  47.483  42.671  0.00  0.00    -0.391 OA
ATOM     25  H18 <0> d          47.984  47.018  41.889  0.00  0.00     0.210 HD
ATOM     26  N2  <0> d          49.969  45.644  42.746  0.00  0.00    -0.070 N 
ATOM     27  H26 <0> d          49.886  45.510  43.753  0.00  0.00     0.274 HD
ATOM     28  H27 <0> d          49.083  45.985  42.376  0.00  0.00     0.274 HD
ATOM     29  H34 <0> d          50.191  44.743  42.306  0.00  0.00     0.274 HD
ATOM     30  N1  <0> d          48.803  49.637  44.464  0.00  0.00    -0.070 N 
ATOM     31  C14 <0> d          49.355  50.422  45.584  0.00  0.00     0.267 C 
ATOM     32  H32 <0> d          48.171  48.916  44.834  0.00  0.00     0.277 HD
ATOM     33  H33 <0> d          48.281  50.260  43.837  0.00  0.00     0.277 HD
ATOM     34  O5  <0> d          52.132  46.090  44.545  0.00  0.00    -0.391 OA
ATOM     35  H25 <0> d          52.683  46.378  45.285  0.00  0.00     0.210 HD
ATOM     36  O4  <0> d          49.438  46.890  44.822  0.00  0.00    -0.386 OA
ATOM     37  C15 <0> d          49.248  46.626  46.212  0.00  0.00     0.202 C 
ENDMDL
MODEL 2
REMARK VINA RESULT:      -6.9      2.796      3.641
ATOM      1  C8  <0> d          49.812  48.277  44.548  0.00  0.00     0.188 C 
ATOM      2  C9  <0> d          49.602  47.287  45.695  0.00  0.00     0.246 C 
ATOM      3  C10 <0> d          48.976  48.014  46.888  0.00  0.00     0.182 C 
ATOM      4  C11 <0> d          47.630  48.608  46.474  0.00  0.00     0.184 C 
ATOM      5  C12 <0> d          47.840  49.599  45.327  0.00  0.00     0.247 C 
ATOM      6  C13 <0> d          48.464  48.871  44.134  0.00  0.00     0.182 C 
ATOM      7  O2  <0> d          50.394  47.597  43.433  0.00  0.00    -0.349 OA
ATOM      8  C7  <0> d          51.761  47.941  43.193  0.00  0.00     0.291 C 
ATOM      9  C6  <0> d          52.459  46.785  42.470  0.00  0.00     0.238 C 
ATOM     10  C5  <0> d          51.788  46.566  41.110  0.00  0.00     0.040 C 
ATOM     11  C4  <0> d          51.843  47.870  40.308  0.00  0.00     0.036 C 
ATOM     12  C3  <0> d          51.168  48.984  41.116  0.00  0.00     0.154 C 
ATOM     13  O1  <0> d          51.820  49.116  42.380  0.00  0.00    -0.352 OA
ATOM     14  N3  <0> d          52.321  45.561  43.277  0.00  0.00    -0.070 N 
ATOM     15  H28 <0> d          53.146  45.435  43.862  0.00  0.00     0.274 HD
ATOM     16  H29 <0> d          51.494  45.623  43.868  0.00  0.00     0.274 HD
ATOM     17  H35 <0> d          52.226  44.753  42.651  0.00  0.00     0.274 HD
ATOM     18  C2  <0> d          51.272  50.304  40.348  0.00  0.00     0.208 C 
ATOM     19  C1  <0> d          52.730  50.548  39.952  0.00  0.00     0.042 C 
ATOM     20  N4  <0> d          50.784  51.398  41.206  0.00  0.00    -0.073 N 
ATOM     21  H30 <0> d          49.876  51.155  41.600  0.00  0.00     0.274 HD
ATOM     22  H31 <0> d          51.446  51.573  41.961  0.00  0.00     0.274 HD
ATOM     23  H36 <0> d          50.686  52.250  40.642  0.00  0.00     0.274 HD
ATOM     24  O3  <0> d          47.592  47.824  43.706  0.00  0.00    -0.391 OA
ATOM     25  H18 <0> d          46.669  48.096  43.606  0.00  0.00     0.210 HD
ATOM     26  N2  <0> d          48.685  46.223  45.247  0.00  0.00    -0.070 N 
ATOM     27  H26 <0> d          48.635  45.486  45.949  0.00  0.00     0.274 HD
ATOM     28  H27 <0> d          47.754  46.607  45.092  0.00  0.00     0.274 HD
ATOM     29  H34 <0> d          49.035  45.825  44.367  0.00  0.00     0.274 HD
ATOM     30  N1  <0> d          46.536  50.164  44.931  0.00  0.00    -0.070 N 
ATOM     31  C14 <0> d          46.729  51.293  44.002  0.00  0.00     0.267 C 
ATOM     32  H32 <0> d          46.042  50.495  45.769  0.00  0.00     0.277 HD
ATOM     33  H33 <0> d          45.978  49.437  44.469  0.00  0.00     0.277 HD
ATOM     34  O5  <0> d          48.781  47.089  47.960  0.00  0.00    -0.391 OA
ATOM     35  H25 <0> d          48.107  47.361  48.596  0.00  0.00     0.210 HD
ATOM     36  O4  <0> d          46.757  47.560  46.046  0.00  0.00    -0.386 OA
ATOM     37  C15 <0> d          45.529  47.492  46.772  0.00  0.00     0.202 C 
ENDMDL
MODEL 3
REMARK VINA RESULT:      -6.7      1.823      3.199
ATOM      1  C8  <0> d          50.773  48.091  43.325  0.00  0.00     0.188 C 
ATOM      2  C9  <0> d          51.500  46.924  43.996  0.00  0.00     0.246 C 
ATOM      3  C10 <0> d          51.012  46.783  45.440  0.00  0.00     0.182 C 
ATOM      4  C11 <0> d          49.507  46.518  45.447  0.00  0.00     0.184 C 
ATOM      5  C12 <0> d          48.780  47.686  44.776  0.00  0.00     0.247 C 
ATOM      6  C13 <0> d          49.267  47.827  43.332  0.00  0.00     0.182 C 
ATOM      7  O2  <0> d          51.227  48.222  41.976  0.00  0.00    -0.349 OA
ATOM      8  C7  <0> d          50.199  48.581  41.049  0.00  0.00     0.291 C 
ATOM      9  C6  <0> d          50.597  49.866  40.318  0.00  0.00     0.238 C 
ATOM     10  C5  <0> d          51.877  49.612  39.517  0.00  0.00     0.040 C 
ATOM     11  C4  <0> d          51.641  48.444  38.553  0.00  0.00     0.036 C 
ATOM     12  C3  <0> d          51.203  47.214  39.354  0.00  0.00     0.154 C 
ATOM     13  O1  <0> d          50.025  47.527  40.099  0.00  0.00    -0.352 OA
ATOM     14  N3  <0> d          50.853  50.923  41.311  0.00  0.00    -0.070 N 
ATOM     15  H28 <0> d          50.783  51.839  40.870  0.00  0.00     0.274 HD
ATOM     16  H29 <0> d          50.178  50.861  42.071  0.00  0.00     0.274 HD
ATOM     17  H35 <0> d          51.799  50.806  41.692  0.00  0.00     0.274 HD
ATOM     18  C2  <0> d          50.907  46.060  38.393  0.00  0.00     0.208 C 
ATOM     19  C1  <0> d          49.530  46.269  37.757  0.00  0.00     0.042 C 
ATOM     20  N4  <0> d          50.940  44.791  39.141  0.00  0.00    -0.073 N 
ATOM     21  H30 <0> d          49.991  44.466  39.321  0.00  0.00     0.274 HD
ATOM     22  H31 <0> d          51.446  44.085  38.608  0.00  0.00     0.274 HD
ATOM     23  H36 <0> d          51.419  44.941  40.037  0.00  0.00     0.274 HD
ATOM     24  O3  <0> d          48.991  46.621  42.618  0.00  0.00    -0.391 OA
ATOM     25  H18 <0> d          48.697  45.889  43.178  0.00  0.00     0.210 HD
ATOM     26  N2  <0> d          51.191  45.683  43.262  0.00  0.00    -0.070 N 
ATOM     27  H26 <0> d          51.980  45.420  42.674  0.00  0.00     0.274 HD
ATOM     28  H27 <0> d          50.990  44.930  43.918  0.00  0.00     0.274 HD
ATOM     29  H34 <0> d          50.368  45.839  42.668  0.00  0.00     0.274 HD
ATOM     30  N1  <0> d          47.329  47.422  44.783  0.00  0.00    -0.070 N 
ATOM     31  C14 <0> d          46.743  47.819  46.077  0.00  0.00     0.267 C 
ATOM     32  H32 <0> d          47.166  46.419  44.630  0.00  0.00     0.277 HD
ATOM     33  H33 <0> d          46.883  47.959  44.030  0.00  0.00     0.277 HD
ATOM     34  O5  <0> d          51.691  45.692  46.067  0.00  0.00    -0.391 OA
ATOM     35  H25 <0> d          51.441  45.550  46.989  0.00  0.00     0.210 HD
ATOM     36  O4  <0> d          49.231  45.311  44.732  0.00  0.00    -0.386 OA
ATOM     37  C15 <0> d          48.464  44.360  45.471  0.00  0.00     0.202 C 
ENDMDL
MODEL 4
REMARK VINA RESULT:      -6.6      2.983      4.650
ATOM      1  C8  <0> d          49.730  49.957  39.837  0.00  0.00     0.188 C 
ATOM      2  C9  <0> d          48.278  50.097  40.296  0.00  0.00     0.246 C 
ATOM      3  C10 <0> d          47.956  48.998  41.311  0.00  0.00     0.182 C 
ATOM      4  C11 <0> d          48.886  49.129  42.516  0.00  0.00     0.184 C 
ATOM      5  C12 <0> d          50.340  48.988  42.058  0.00  0.00     0.247 C 
ATOM      6  C13 <0> d          50.662  50.088  41.043  0.00  0.00     0.182 C 
ATOM      7  O2  <0> d          50.032  50.984  38.890  0.00  0.00    -0.349 OA
ATOM      8  C7  <0> d          49.312  50.870  37.660  0.00  0.00     0.291 C 
ATOM      9  C6  <0> d          49.171  52.254  37.020  0.00  0.00     0.238 C 
ATOM     10  C5  <0> d          50.565  52.800  36.694  0.00  0.00     0.040 C 
ATOM     11  C4  <0> d          51.290  51.808  35.779  0.00  0.00     0.036 C 
ATOM     12  C3  <0> d          51.349  50.441  36.468  0.00  0.00     0.154 C 
ATOM     13  O1  <0> d          50.022  50.005  36.771  0.00  0.00    -0.352 OA
ATOM     14  N3  <0> d          48.512  53.160  37.975  0.00  0.00    -0.070 N 
ATOM     15  H28 <0> d          47.822  53.734  37.492  0.00  0.00     0.274 HD
ATOM     16  H29 <0> d          48.050  52.622  38.707  0.00  0.00     0.274 HD
ATOM     17  H35 <0> d          49.217  53.772  38.403  0.00  0.00     0.274 HD
ATOM     18  C2  <0> d          52.018  49.428  35.536  0.00  0.00     0.208 C 
ATOM     19  C1  <0> d          51.105  49.160  34.337  0.00  0.00     0.042 C 
ATOM     20  N4  <0> d          52.267  48.182  36.280  0.00  0.00    -0.073 N 
ATOM     21  H30 <0> d          53.251  47.925  36.212  0.00  0.00     0.274 HD
ATOM     22  H31 <0> d          52.014  48.303  37.260  0.00  0.00     0.274 HD
ATOM     23  H36 <0> d          51.696  47.429  35.877  0.00  0.00     0.274 HD
ATOM     24  O3  <0> d          50.476  51.366  41.653  0.00  0.00    -0.391 OA
ATOM     25  H18 <0> d          49.596  51.744  41.515  0.00  0.00     0.210 HD
ATOM     26  N2  <0> d          48.105  51.411  40.940  0.00  0.00    -0.070 N 
ATOM     27  H26 <0> d          48.868  52.033  40.677  0.00  0.00     0.274 HD
ATOM     28  H27 <0> d          47.218  51.825  40.657  0.00  0.00     0.274 HD
ATOM     29  H34 <0> d          48.108  51.290  41.960  0.00  0.00     0.274 HD
ATOM     30  N1  <0> d          51.230  49.119  43.226  0.00  0.00    -0.070 N 
ATOM     31  C14 <0> d          51.202  47.884  44.032  0.00  0.00     0.267 C 
ATOM     32  H32 <0> d          50.918  49.909  43.804  0.00  0.00     0.277 HD
ATOM     33  H33 <0> d          52.190  49.290  42.903  0.00  0.00     0.277 HD
ATOM     34  O5  <0> d          46.598  49.129  41.739  0.00  0.00    -0.391 OA
ATOM     35  H25 <0> d          46.486  49.131  42.698  0.00  0.00     0.210 HD
ATOM     36  O4  <0> d          48.700  50.408  43.127  0.00  0.00    -0.386 OA
ATOM     37  C15 <0> d          48.226  50.348  44.472  0.00  0.00     0.202 C 
ENDMDL
MODEL 5
REMARK VINA RESULT:      -6.6      2.080      2.573
ATOM      1  C8  <0> d          50.798  48.616  40.007  0.00  0.00     0.188 C 
ATOM      2  C9  <0> d          51.576  47.404  40.523  0.00  0.00     0.246 C 
ATOM      3  C10 <0> d          51.717  47.498  42.044  0.00  0.00     0.182 C 
ATOM      4  C11 <0> d          50.329  47.523  42.683  0.00  0.00     0.184 C 
ATOM      5  C12 <0> d          49.550  48.736  42.169  0.00  0.00     0.247 C 
ATOM      6  C13 <0> d          49.409  48.642  40.648  0.00  0.00     0.182 C 
ATOM      7  O2  <0> d          50.665  48.528  38.587  0.00  0.00    -0.349 OA
ATOM      8  C7  <0> d          51.723  49.162  37.863  0.00  0.00     0.291 C 
ATOM      9  C6  <0> d          51.955  48.421  36.544  0.00  0.00     0.238 C 
ATOM     10  C5  <0> d          50.688  48.511  35.688  0.00  0.00     0.040 C 
ATOM     11  C4  <0> d          50.333  49.986  35.471  0.00  0.00     0.036 C 
ATOM     12  C3  <0> d          50.163  50.665  36.834  0.00  0.00     0.154 C 
ATOM     13  O1  <0> d          51.366  50.519  37.591  0.00  0.00    -0.352 OA
ATOM     14  N3  <0> d          52.241  47.005  36.832  0.00  0.00    -0.070 N 
ATOM     15  H28 <0> d          52.575  46.539  35.990  0.00  0.00     0.274 HD
ATOM     16  H29 <0> d          52.948  46.933  37.562  0.00  0.00     0.274 HD
ATOM     17  H35 <0> d          51.380  46.546  37.151  0.00  0.00     0.274 HD
ATOM     18  C2  <0> d          49.869  52.153  36.627  0.00  0.00     0.208 C 
ATOM     19  C1  <0> d          51.101  52.974  37.013  0.00  0.00     0.042 C 
ATOM     20  N4  <0> d          48.715  52.535  37.461  0.00  0.00    -0.073 N 
ATOM     21  H30 <0> d          48.294  51.705  37.876  0.00  0.00     0.274 HD
ATOM     22  H31 <0> d          49.013  53.170  38.200  0.00  0.00     0.274 HD
ATOM     23  H36 <0> d          48.018  53.007  36.874  0.00  0.00     0.274 HD
ATOM     24  O3  <0> d          48.706  47.446  40.309  0.00  0.00    -0.391 OA
ATOM     25  H18 <0> d          48.502  46.880  41.067  0.00  0.00     0.210 HD
ATOM     26  N2  <0> d          50.830  46.178  40.184  0.00  0.00    -0.070 N 
ATOM     27  H26 <0> d          51.394  45.581  39.582  0.00  0.00     0.274 HD
ATOM     28  H27 <0> d          50.587  45.671  41.033  0.00  0.00     0.274 HD
ATOM     29  H34 <0> d          49.967  46.435  39.689  0.00  0.00     0.274 HD
ATOM     30  N1  <0> d          48.212  48.751  42.788  0.00  0.00    -0.070 N 
ATOM     31  C14 <0> d          47.518  50.014  42.476  0.00  0.00     0.267 C 
ATOM     32  H32 <0> d          48.309  48.659  43.807  0.00  0.00     0.277 HD
ATOM     33  H33 <0> d          47.662  47.964  42.425  0.00  0.00     0.277 HD
ATOM     34  O5  <0> d          52.444  46.365  42.524  0.00  0.00    -0.391 OA
ATOM     35  H25 <0> d          52.977  46.544  43.310  0.00  0.00     0.210 HD
ATOM     36  O4  <0> d          49.625  46.326  42.345  0.00  0.00    -0.386 OA
ATOM     37  C15 <0> d          49.255  45.529  43.470  0.00  0.00     0.202 C 
ENDMDL
MODEL 6
REMARK VINA RESULT:      -6.5      2.684      6.541
ATOM      1  C8  <0> d          50.128  49.322  37.716  0.00  0.00     0.188 C 
ATOM      2  C9  <0> d          51.201  49.837  36.755  0.00  0.00     0.246 C 
ATOM      3  C10 <0> d          50.646  51.020  35.959  0.00  0.00     0.182 C 
ATOM      4  C11 <0> d          50.243  52.138  36.920  0.00  0.00     0.184 C 
ATOM      5  C12 <0> d          49.169  51.624  37.881  0.00  0.00     0.247 C 
ATOM      6  C13 <0> d          49.724  50.441  38.679  0.00  0.00     0.182 C 
ATOM      7  O2  <0> d          50.647  48.218  38.462  0.00  0.00    -0.349 OA
ATOM      8  C7  <0> d          49.661  47.247  38.823  0.00  0.00     0.291 C 
ATOM      9  C6  <0> d          49.977  45.918  38.132  0.00  0.00     0.238 C 
ATOM     10  C5  <0> d          51.336  45.407  38.623  0.00  0.00     0.040 C 
ATOM     11  C4  <0> d          51.299  45.274  40.149  0.00  0.00     0.036 C 
ATOM     12  C3  <0> d          50.933  46.629  40.761  0.00  0.00     0.154 C 
ATOM     13  O1  <0> d          49.674  47.061  40.241  0.00  0.00    -0.352 OA
ATOM     14  N3  <0> d          50.043  46.137  36.677  0.00  0.00    -0.070 N 
ATOM     15  H28 <0> d          50.931  45.794  36.314  0.00  0.00     0.274 HD
ATOM     16  H29 <0> d          49.277  45.650  36.215  0.00  0.00     0.274 HD
ATOM     17  H35 <0> d          49.967  47.142  36.484  0.00  0.00     0.274 HD
ATOM     18  C2  <0> d          50.835  46.491  42.282  0.00  0.00     0.208 C 
ATOM     19  C1  <0> d          52.173  45.995  42.835  0.00  0.00     0.042 C 
ATOM     20  N4  <0> d          49.760  45.538  42.609  0.00  0.00    -0.073 N 
ATOM     21  H30 <0> d          49.103  45.961  43.264  0.00  0.00     0.274 HD
ATOM     22  H31 <0> d          49.265  45.264  41.762  0.00  0.00     0.274 HD
ATOM     23  H36 <0> d          50.171  44.702  43.042  0.00  0.00     0.274 HD
ATOM     24  O3  <0> d          50.867  50.864  39.424  0.00  0.00    -0.391 OA
ATOM     25  H18 <0> d          51.294  50.157  39.926  0.00  0.00     0.210 HD
ATOM     26  N2  <0> d          52.366  50.289  37.538  0.00  0.00    -0.070 N 
ATOM     27  H26 <0> d          53.211  49.827  37.206  0.00  0.00     0.274 HD
ATOM     28  H27 <0> d          52.475  51.298  37.451  0.00  0.00     0.274 HD
ATOM     29  H34 <0> d          52.221  50.052  38.526  0.00  0.00     0.274 HD
ATOM     30  N1  <0> d          48.789  52.707  38.807  0.00  0.00    -0.070 N 
ATOM     31  C14 <0> d          48.195  53.832  38.061  0.00  0.00     0.267 C 
ATOM     32  H32 <0> d          49.624  53.034  39.308  0.00  0.00     0.277 HD
ATOM     33  H33 <0> d          48.104  52.349  39.483  0.00  0.00     0.277 HD
ATOM     34  O5  <0> d          51.649  51.501  35.061  0.00  0.00    -0.391 OA
ATOM     35  H25 <0> d          51.966  52.390  35.264  0.00  0.00     0.210 HD
ATOM     36  O4  <0> d          51.387  52.562  37.665  0.00  0.00    -0.386 OA
ATOM     37  C15 <0> d          51.854  53.868  37.324  0.00  0.00     0.202 C 
ENDMDL
MODEL 7
REMARK VINA RESULT:      -6.4      1.960      4.034
ATOM      1  C8  <0> d          49.158  47.830  42.783  0.00  0.00     0.188 C 
ATOM      2  C9  <0> d          48.633  48.936  43.701  0.00  0.00     0.246 C 
ATOM      3  C10 <0> d          47.525  48.374  44.595  0.00  0.00     0.182 C 
ATOM      4  C11 <0> d          48.084  47.231  45.442  0.00  0.00     0.184 C 
ATOM      5  C12 <0> d          48.608  46.123  44.524  0.00  0.00     0.247 C 
ATOM      6  C13 <0> d          49.716  46.685  43.631  0.00  0.00     0.182 C 
ATOM      7  O2  <0> d          50.194  48.354  41.950  0.00  0.00    -0.349 OA
ATOM      8  C7  <0> d          49.732  48.850  40.691  0.00  0.00     0.291 C 
ATOM      9  C6  <0> d          50.649  49.982  40.220  0.00  0.00     0.238 C 
ATOM     10  C5  <0> d          52.062  49.429  40.012  0.00  0.00     0.040 C 
ATOM     11  C4  <0> d          52.004  48.273  39.008  0.00  0.00     0.036 C 
ATOM     12  C3  <0> d          51.034  47.207  39.527  0.00  0.00     0.154 C 
ATOM     13  O1  <0> d          49.747  47.793  39.728  0.00  0.00    -0.352 OA
ATOM     14  N3  <0> d          50.690  51.028  41.256  0.00  0.00    -0.070 N 
ATOM     15  H28 <0> d          49.781  51.105  41.709  0.00  0.00     0.274 HD
ATOM     16  H29 <0> d          51.397  50.802  41.953  0.00  0.00     0.274 HD
ATOM     17  H35 <0> d          50.924  51.927  40.819  0.00  0.00     0.274 HD
ATOM     18  C2  <0> d          50.924  46.076  38.501  0.00  0.00     0.208 C 
ATOM     19  C1  <0> d          49.607  46.211  37.734  0.00  0.00     0.042 C 
ATOM     20  N4  <0> d          50.978  44.782  39.204  0.00  0.00    -0.073 N 
ATOM     21  H30 <0> d          50.519  44.857  40.111  0.00  0.00     0.274 HD
ATOM     22  H31 <0> d          50.519  44.063  38.649  0.00  0.00     0.274 HD
ATOM     23  H36 <0> d          51.960  44.518  39.348  0.00  0.00     0.274 HD
ATOM     24  O3  <0> d          50.783  47.172  44.446  0.00  0.00    -0.391 OA
ATOM     25  H18 <0> d          51.043  48.084  44.252  0.00  0.00     0.210 HD
ATOM     26  N2  <0> d          49.738  49.416  44.551  0.00  0.00    -0.070 N 
ATOM     27  H26 <0> d          50.531  48.779  44.486  0.00  0.00     0.274 HD
ATOM     28  H27 <0> d          50.027  50.347  44.256  0.00  0.00     0.274 HD
ATOM     29  H34 <0> d          49.421  49.457  45.526  0.00  0.00     0.274 HD
ATOM     30  N1  <0> d          49.147  45.026  45.348  0.00  0.00    -0.070 N 
ATOM     31  C14 <0> d          48.163  43.934  45.454  0.00  0.00     0.267 C 
ATOM     32  H32 <0> d          49.363  45.382  46.288  0.00  0.00     0.277 HD
ATOM     33  H33 <0> d          50.006  44.668  44.915  0.00  0.00     0.277 HD
ATOM     34  O5  <0> d          47.036  49.408  45.452  0.00  0.00    -0.391 OA
ATOM     35  H25 <0> d          47.393  50.284  45.255  0.00  0.00     0.210 HD
ATOM     36  O4  <0> d          49.151  47.718  46.258  0.00  0.00    -0.386 OA
ATOM     37  C15 <0> d          48.866  47.707  47.657  0.00  0.00     0.202 C 
ENDMDL
MODEL 8
REMARK VINA RESULT:      -6.4      1.641      1.699
ATOM      1  C8  <0> d          50.623  47.740  42.032  0.00  0.00     0.188 C 
ATOM      2  C9  <0> d          51.519  46.748  42.776  0.00  0.00     0.246 C 
ATOM      3  C10 <0> d          51.642  47.172  44.241  0.00  0.00     0.182 C 
ATOM      4  C11 <0> d          50.256  47.189  44.885  0.00  0.00     0.184 C 
ATOM      5  C12 <0> d          49.359  48.181  44.141  0.00  0.00     0.247 C 
ATOM      6  C13 <0> d          49.235  47.757  42.676  0.00  0.00     0.182 C 
ATOM      7  O2  <0> d          50.506  47.343  40.663  0.00  0.00    -0.349 OA
ATOM      8  C7  <0> d          51.702  47.527  39.901  0.00  0.00     0.291 C 
ATOM      9  C6  <0> d          51.537  46.874  38.526  0.00  0.00     0.238 C 
ATOM     10  C5  <0> d          50.395  47.567  37.775  0.00  0.00     0.040 C 
ATOM     11  C4  <0> d          50.699  49.066  37.674  0.00  0.00     0.036 C 
ATOM     12  C3  <0> d          50.896  49.633  39.084  0.00  0.00     0.154 C 
ATOM     13  O1  <0> d          51.951  48.925  39.737  0.00  0.00    -0.352 OA
ATOM     14  N3  <0> d          51.199  45.452  38.707  0.00  0.00    -0.070 N 
ATOM     15  H28 <0> d          50.206  45.354  38.913  0.00  0.00     0.274 HD
ATOM     16  H29 <0> d          51.423  44.929  37.863  0.00  0.00     0.274 HD
ATOM     17  H35 <0> d          51.743  45.073  39.491  0.00  0.00     0.274 HD
ATOM     18  C2  <0> d          51.260  51.117  38.989  0.00  0.00     0.208 C 
ATOM     19  C1  <0> d          52.056  51.364  37.705  0.00  0.00     0.042 C 
ATOM     20  N4  <0> d          52.059  51.492  40.169  0.00  0.00    -0.073 N 
ATOM     21  H30 <0> d          51.444  51.733  40.945  0.00  0.00     0.274 HD
ATOM     22  H31 <0> d          52.663  50.718  40.442  0.00  0.00     0.274 HD
ATOM     23  H36 <0> d          52.641  52.305  39.936  0.00  0.00     0.274 HD
ATOM     24  O3  <0> d          48.661  46.451  42.606  0.00  0.00    -0.391 OA
ATOM     25  H18 <0> d          49.079  45.871  41.954  0.00  0.00     0.210 HD
ATOM     26  N2  <0> d          50.906  45.409  42.713  0.00  0.00    -0.070 N 
ATOM     27  H26 <0> d          49.906  45.491  42.532  0.00  0.00     0.274 HD
ATOM     28  H27 <0> d          51.341  44.860  41.974  0.00  0.00     0.274 HD
ATOM     29  H34 <0> d          51.045  44.932  43.612  0.00  0.00     0.274 HD
ATOM     30  N1  <0> d          48.023  48.189  44.766  0.00  0.00    -0.070 N 
ATOM     31  C14 <0> d          48.060  48.924  46.044  0.00  0.00     0.267 C 
ATOM     32  H32 <0> d          47.724  47.221  44.939  0.00  0.00     0.277 HD
ATOM     33  H33 <0> d          47.355  48.644  44.133  0.00  0.00     0.277 HD
ATOM     34  O5  <0> d          52.480  46.246  44.935  0.00  0.00    -0.391 OA
ATOM     35  H25 <0> d          52.257  46.137  45.869  0.00  0.00     0.210 HD
ATOM     36  O4  <0> d          49.681  45.882  44.815  0.00  0.00    -0.386 OA
ATOM     37  C15 <0> d          49.267  45.360  46.078  0.00  0.00     0.202 C 
ENDMDL
MODEL 9
REMARK VINA RESULT:      -6.4      2.590      6.354
ATOM      1  C8  <0> d          49.754  47.562  42.723  0.00  0.00     0.188 C 
ATOM      2  C9  <0> d          51.189  47.245  42.297  0.00  0.00     0.246 C 
ATOM      3  C10 <0> d          51.300  47.336  40.773  0.00  0.00     0.182 C 
ATOM      4  C11 <0> d          50.932  48.748  40.318  0.00  0.00     0.184 C 
ATOM      5  C12 <0> d          49.497  49.065  40.744  0.00  0.00     0.247 C 
ATOM      6  C13 <0> d          49.386  48.976  42.268  0.00  0.00     0.182 C 
ATOM      7  O2  <0> d          49.651  47.479  44.146  0.00  0.00    -0.349 OA
ATOM      8  C7  <0> d          48.931  46.334  44.611  0.00  0.00     0.291 C 
ATOM      9  C6  <0> d          49.420  45.958  46.012  0.00  0.00     0.238 C 
ATOM     10  C5  <0> d          49.126  47.114  46.974  0.00  0.00     0.040 C 
ATOM     11  C4  <0> d          47.625  47.419  46.945  0.00  0.00     0.036 C 
ATOM     12  C3  <0> d          47.206  47.739  45.506  0.00  0.00     0.154 C 
ATOM     13  O1  <0> d          47.535  46.637  44.659  0.00  0.00    -0.352 OA
ATOM     14  N3  <0> d          50.874  45.729  45.968  0.00  0.00    -0.070 N 
ATOM     15  H28 <0> d          51.067  44.735  45.848  0.00  0.00     0.274 HD
ATOM     16  H29 <0> d          51.287  46.248  45.195  0.00  0.00     0.274 HD
ATOM     17  H35 <0> d          51.294  46.047  46.849  0.00  0.00     0.274 HD
ATOM     18  C2  <0> d          45.697  47.986  45.459  0.00  0.00     0.208 C 
ATOM     19  C1  <0> d          45.428  49.493  45.444  0.00  0.00     0.042 C 
ATOM     20  N4  <0> d          45.071  47.365  46.639  0.00  0.00    -0.073 N 
ATOM     21  H30 <0> d          45.568  47.640  47.484  0.00  0.00     0.274 HD
ATOM     22  H31 <0> d          44.095  47.651  46.709  0.00  0.00     0.274 HD
ATOM     23  H36 <0> d          45.113  46.343  46.543  0.00  0.00     0.274 HD
ATOM     24  O3  <0> d          50.279  49.916  42.865  0.00  0.00    -0.391 OA
ATOM     25  H18 <0> d          50.641  50.565  42.246  0.00  0.00     0.210 HD
ATOM     26  N2  <0> d          52.097  48.235  42.904  0.00  0.00    -0.070 N 
ATOM     27  H26 <0> d          52.468  47.876  43.782  0.00  0.00     0.274 HD
ATOM     28  H27 <0> d          52.867  48.439  42.269  0.00  0.00     0.274 HD
ATOM     29  H34 <0> d          51.577  49.101  43.089  0.00  0.00     0.274 HD
ATOM     30  N1  <0> d          49.152  50.430  40.304  0.00  0.00    -0.070 N 
ATOM     31  C14 <0> d          49.022  50.477  38.836  0.00  0.00     0.267 C 
ATOM     32  H32 <0> d          49.891  51.079  40.601  0.00  0.00     0.277 HD
ATOM     33  H33 <0> d          48.261  50.709  40.732  0.00  0.00     0.277 HD
ATOM     34  O5  <0> d          52.640  47.039  40.376  0.00  0.00    -0.391 OA
ATOM     35  H25 <0> d          52.708  46.597  39.519  0.00  0.00     0.210 HD
ATOM     36  O4  <0> d          51.826  49.690  40.916  0.00  0.00    -0.386 OA
ATOM     37  C15 <0> d          52.612  50.424  39.977  0.00  0.00     0.202 C 
ENDMDL
MODEL 10
REMARK VINA RESULT:      -6.3      2.161      6.578
ATOM      1  C8  <0> d          50.052  47.507  40.844  0.00  0.00     0.188 C 
ATOM      2  C9  <0> d          50.870  46.562  39.962  0.00  0.00     0.246 C 
ATOM      3  C10 <0> d          50.281  46.547  38.549  0.00  0.00     0.182 C 
ATOM      4  C11 <0> d          50.325  47.959  37.964  0.00  0.00     0.184 C 
ATOM      5  C12 <0> d          49.507  48.904  38.846  0.00  0.00     0.247 C 
ATOM      6  C13 <0> d          50.097  48.919  40.258  0.00  0.00     0.182 C 
ATOM      7  O2  <0> d          50.603  47.522  42.163  0.00  0.00    -0.349 OA
ATOM      8  C7  <0> d          51.024  46.238  42.632  0.00  0.00     0.291 C 
ATOM      9  C6  <0> d          52.193  46.407  43.605  0.00  0.00     0.238 C 
ATOM     10  C5  <0> d          51.723  47.215  44.819  0.00  0.00     0.040 C 
ATOM     11  C4  <0> d          50.530  46.501  45.464  0.00  0.00     0.036 C 
ATOM     12  C3  <0> d          49.425  46.329  44.418  0.00  0.00     0.154 C 
ATOM     13  O1  <0> d          49.936  45.596  43.303  0.00  0.00    -0.352 OA
ATOM     14  N3  <0> d          53.277  47.142  42.930  0.00  0.00    -0.070 N 
ATOM     15  H28 <0> d          52.938  48.050  42.616  0.00  0.00     0.274 HD
ATOM     16  H29 <0> d          54.060  47.275  43.568  0.00  0.00     0.274 HD
ATOM     17  H35 <0> d          53.594  46.602  42.117  0.00  0.00     0.274 HD
ATOM     18  C2  <0> d          48.253  45.563  45.037  0.00  0.00     0.208 C 
ATOM     19  C1  <0> d          47.691  46.359  46.217  0.00  0.00     0.042 C 
ATOM     20  N4  <0> d          48.727  44.243  45.487  0.00  0.00    -0.073 N 
ATOM     21  H30 <0> d          49.258  44.338  46.352  0.00  0.00     0.274 HD
ATOM     22  H31 <0> d          47.935  43.621  45.642  0.00  0.00     0.274 HD
ATOM     23  H36 <0> d          49.333  43.838  44.764  0.00  0.00     0.274 HD
ATOM     24  O3  <0> d          51.451  49.371  40.204  0.00  0.00    -0.391 OA
ATOM     25  H18 <0> d          52.105  48.668  40.319  0.00  0.00     0.210 HD
ATOM     26  N2  <0> d          52.259  47.050  39.898  0.00  0.00    -0.070 N 
ATOM     27  H26 <0> d          52.729  46.661  39.082  0.00  0.00     0.274 HD
ATOM     28  H27 <0> d          52.270  48.067  39.842  0.00  0.00     0.274 HD
ATOM     29  H34 <0> d          52.760  46.755  40.745  0.00  0.00     0.274 HD
ATOM     30  N1  <0> d          49.558  50.263  38.276  0.00  0.00    -0.070 N 
ATOM     31  C14 <0> d          48.970  50.274  36.924  0.00  0.00     0.267 C 
ATOM     32  H32 <0> d          50.537  50.573  38.224  0.00  0.00     0.277 HD
ATOM     33  H33 <0> d          49.030  50.904  38.880  0.00  0.00     0.277 HD
ATOM     34  O5  <0> d          51.045  45.664  37.725  0.00  0.00    -0.391 OA
ATOM     35  H25 <0> d          50.510  45.060  37.194  0.00  0.00     0.210 HD
ATOM     36  O4  <0> d          51.681  48.410  37.908  0.00  0.00    -0.386 OA
ATOM     37  C15 <0> d          52.176  48.605  36.584  0.00  0.00     0.202 C 
ENDMDL
MODEL 1
REMARK VINA RESULT:      -6.9      0.000      0.000
ATOM      1  C8  <0> d          50.447  47.754  41.631  0.00  0.00     0.188 C 
ATOM      2  C9  <0> d          51.017  46.610  42.471  0.00  0.00     0.246 C 
ATOM      3  C10 <0> d          51.560  47.166  43.789  0.00  0.00     0.182 C 
ATOM      4  C11 <0> d          50.430  47.849  44.559  0.00  0.00     0.184 C 
ATOM      5  C12 <0> d          49.859  48.995  43.719  0.00  0.00     0.247 C 
ATOM      6  C13 <0> d          49.316  48.439  42.402  0.00  0.00     0.182 C 
ATOM      7  O2  <0> d          49.938  47.235  40.401  0.00  0.00    -0.349 OA
ATOM      8  C7  <0> d          50.831  47.386  39.293  0.00  0.00     0.291 C 
ATOM      9  C6  <0> d          50.721  46.161  38.380  0.00  0.00     0.238 C 
ATOM     10  C5  <0> d          49.297  46.077  37.821  0.00  0.00     0.040 C 
ATOM     11  C4  <0> d          48.969  47.381  37.087  0.00  0.00     0.036 C 
ATOM     12  C3  <0> d          49.146  48.558  38.052  0.00  0.00     0.154 C 
ATOM     13  O1  <0> d          50.483  48.560  38.557  0.00  0.00    -0.352 OA
ATOM     14  N3  <0> d          51.002  44.948  39.167  0.00  0.00    -0.070 N 
ATOM     15  H28 <0> d          50.573  44.138  38.721  0.00  0.00     0.274 HD
ATOM     16  H29 <0> d          52.007  44.803  39.239  0.00  0.00     0.274 HD
ATOM     17  H35 <0> d          50.609  45.059  40.109  0.00  0.00     0.274 HD
ATOM     18  C2  <0> d          48.879  49.869  37.310  0.00  0.00     0.208 C 
ATOM     19  C1  <0> d          49.993  50.113  36.289  0.00  0.00     0.042 C 
ATOM     20  N4  <0> d          48.827  50.971  38.286  0.00  0.00    -0.073 N 
ATOM     21  H30 <0> d          49.570  50.864  38.975  0.00  0.00     0.274 HD
ATOM     22  H31 <0> d          48.931  51.866  37.811  0.00  0.00     0.274 HD
ATOM     23  H36 <0> d          47.919  50.952  38.767  0.00  0.00     0.274 HD
ATOM     24  O3  <0> d          48.284  47.489  42.675  0.00  0.00    -0.391 OA
ATOM     25  H18 <0> d          47.541  47.850  43.179  0.00  0.00     0.210 HD
ATOM     26  N2  <0> d          49.938  45.649  42.763  0.00  0.00    -0.070 N 
ATOM     27  H26 <0> d          49.047  46.013  42.430  0.00  0.00     0.274 HD
ATOM     28  H27 <0> d          50.130  44.758  42.309  0.00  0.00     0.274 HD
ATOM     29  H34 <0> d          49.882  45.502  43.778  0.00  0.00     0.274 HD
ATOM     30  N1  <0> d          48.768  49.646  44.466  0.00  0.00    -0.070 N 
ATOM     31  C14 <0> d          49.313  50.428  45.591  0.00  0.00     0.267 C 
ATOM     32  H32 <0> d          48.131  48.927  44.831  0.00  0.00     0.277 HD
ATOM     33  H33 <0> d          48.253  50.273  43.837  0.00  0.00     0.277 HD
ATOM     34  O5  <0> d          52.093  46.096  44.573  0.00  0.00    -0.391 OA
ATOM     35  H25 <0> d          51.464  45.713  45.197  0.00  0.00     0.210 HD
ATOM     36  O4  <0> d          49.398  46.900  44.832  0.00  0.00    -0.386 OA
ATOM     37  C15 <0> d          49.199  46.640  46.224  0.00  0.00     0.202 C 
ENDMDL
MODEL 2
REMARK VINA RESULT:      -6.8      2.726      3.589
ATOM      1  C8  <0> d          49.791  48.449  44.545  0.00  0.00     0.188 C 
ATOM      2  C9  <0> d          49.577  47.361  45.600  0.00  0.00     0.246 C 
ATOM      3  C10 <0> d          48.998  47.989  46.870  0.00  0.00     0.182 C 
ATOM      4  C11 <0> d          47.661  48.655  46.545  0.00  0.00     0.184 C 
ATOM      5  C12 <0> d          47.875  49.744  45.490  0.00  0.00     0.247 C 
ATOM      6  C13 <0> d          48.453  49.116  44.221  0.00  0.00     0.182 C 
ATOM      7  O2  <0> d          50.331  47.863  43.359  0.00  0.00    -0.349 OA
ATOM      8  C7  <0> d          51.707  48.177  43.129  0.00  0.00     0.291 C 
ATOM      9  C6  <0> d          52.436  46.932  42.616  0.00  0.00     0.238 C 
ATOM     10  C5  <0> d          51.826  46.509  41.275  0.00  0.00     0.040 C 
ATOM     11  C4  <0> d          51.914  47.682  40.293  0.00  0.00     0.036 C 
ATOM     12  C3  <0> d          51.204  48.898  40.897  0.00  0.00     0.154 C 
ATOM     13  O1  <0> d          51.801  49.219  42.155  0.00  0.00    -0.352 OA
ATOM     14  N3  <0> d          52.264  45.840  43.588  0.00  0.00    -0.070 N 
ATOM     15  H28 <0> d          53.149  45.650  44.058  0.00  0.00     0.274 HD
ATOM     16  H29 <0> d          51.561  46.094  44.279  0.00  0.00     0.274 HD
ATOM     17  H35 <0> d          51.958  44.993  43.094  0.00  0.00     0.274 HD
ATOM     18  C2  <0> d          51.340  50.091  39.948  0.00  0.00     0.208 C 
ATOM     19  C1  <0> d          52.792  50.573  39.942  0.00  0.00     0.042 C 
ATOM     20  N4  <0> d          50.443  51.168  40.400  0.00  0.00    -0.073 N 
ATOM     21  H30 <0> d          50.134  50.989  41.355  0.00  0.00     0.274 HD
ATOM     22  H31 <0> d          50.925  52.064  40.362  0.00  0.00     0.274 HD
ATOM     23  H36 <0> d          49.622  51.203  39.783  0.00  0.00     0.274 HD
ATOM     24  O3  <0> d          47.543  48.137  43.717  0.00  0.00    -0.391 OA
ATOM     25  H18 <0> d          46.613  48.399  43.772  0.00  0.00     0.210 HD
ATOM     26  N2  <0> d          48.621  46.370  45.075  0.00  0.00    -0.070 N 
ATOM     27  H26 <0> d          47.756  46.402  45.611  0.00  0.00     0.274 HD
ATOM     28  H27 <0> d          48.419  46.564  44.096  0.00  0.00     0.274 HD
ATOM     29  H34 <0> d          49.029  45.431  45.154  0.00  0.00     0.274 HD
ATOM     30  N1  <0> d          46.581  50.378  45.181  0.00  0.00    -0.070 N 
ATOM     31  C14 <0> d          46.786  51.580  44.352  0.00  0.00     0.267 C 
ATOM     32  H32 <0> d          46.117  50.647  46.057  0.00  0.00     0.277 HD
ATOM     33  H33 <0> d          45.989  49.712  44.670  0.00  0.00     0.277 HD
ATOM     34  O5  <0> d          48.799  46.972  47.854  0.00  0.00    -0.391 OA
ATOM     35  H25 <0> d          48.483  47.304  48.705  0.00  0.00     0.210 HD
ATOM     36  O4  <0> d          46.751  47.676  46.041  0.00  0.00    -0.386 OA
ATOM     37  C15 <0> d          45.559  47.534  46.817  0.00  0.00     0.202 C 
ENDMDL
MODEL 3
REMARK VINA RESULT:      -6.6      2.482      6.843
ATOM      1  C8  <0> d          49.853  47.315  44.008  0.00  0.00     0.188 C 
ATOM      2  C9  <0> d          51.280  47.839  44.174  0.00  0.00     0.246 C 
ATOM      3  C10 <0> d          52.191  47.176  43.139  0.00  0.00     0.182 C 
ATOM      4  C11 <0> d          51.688  47.502  41.733  0.00  0.00     0.184 C 
ATOM      5  C12 <0> d          50.260  46.978  41.566  0.00  0.00     0.247 C 
ATOM      6  C13 <0> d          49.349  47.641  42.600  0.00  0.00     0.182 C 
ATOM      7  O2  <0> d          49.002  47.935  44.974  0.00  0.00    -0.349 OA
ATOM      8  C7  <0> d          49.085  47.356  46.279  0.00  0.00     0.291 C 
ATOM      9  C6  <0> d          48.125  48.087  47.223  0.00  0.00     0.238 C 
ATOM     10  C5  <0> d          46.689  47.901  46.722  0.00  0.00     0.040 C 
ATOM     11  C4  <0> d          46.383  46.403  46.627  0.00  0.00     0.036 C 
ATOM     12  C3  <0> d          47.410  45.738  45.705  0.00  0.00     0.154 C 
ATOM     13  O1  <0> d          48.725  45.975  46.211  0.00  0.00    -0.352 OA
ATOM     14  N3  <0> d          48.452  49.523  47.223  0.00  0.00    -0.070 N 
ATOM     15  H28 <0> d          48.568  49.853  46.265  0.00  0.00     0.274 HD
ATOM     16  H29 <0> d          47.708  50.051  47.675  0.00  0.00     0.274 HD
ATOM     17  H35 <0> d          49.329  49.670  47.737  0.00  0.00     0.274 HD
ATOM     18  C2  <0> d          47.147  44.231  45.652  0.00  0.00     0.208 C 
ATOM     19  C1  <0> d          47.576  43.687  44.288  0.00  0.00     0.042 C 
ATOM     20  N4  <0> d          45.711  43.987  45.874  0.00  0.00    -0.073 N 
ATOM     21  H30 <0> d          45.180  44.839  45.697  0.00  0.00     0.274 HD
ATOM     22  H31 <0> d          45.382  43.248  45.255  0.00  0.00     0.274 HD
ATOM     23  H36 <0> d          45.566  43.697  46.848  0.00  0.00     0.274 HD
ATOM     24  O3  <0> d          49.362  49.057  42.407  0.00  0.00    -0.391 OA
ATOM     25  H18 <0> d          48.505  49.482  42.556  0.00  0.00     0.210 HD
ATOM     26  N2  <0> d          51.282  49.296  43.951  0.00  0.00    -0.070 N 
ATOM     27  H26 <0> d          50.864  49.511  43.048  0.00  0.00     0.274 HD
ATOM     28  H27 <0> d          50.755  49.763  44.688  0.00  0.00     0.274 HD
ATOM     29  H34 <0> d          52.250  49.639  43.963  0.00  0.00     0.274 HD
ATOM     30  N1  <0> d          49.781  47.300  40.209  0.00  0.00    -0.070 N 
ATOM     31  C14 <0> d          50.534  46.527  39.204  0.00  0.00     0.267 C 
ATOM     32  H32 <0> d          49.912  48.303  40.033  0.00  0.00     0.277 HD
ATOM     33  H33 <0> d          48.784  47.067  40.137  0.00  0.00     0.277 HD
ATOM     34  O5  <0> d          53.525  47.665  43.296  0.00  0.00    -0.391 OA
ATOM     35  H25 <0> d          53.727  48.438  42.751  0.00  0.00     0.210 HD
ATOM     36  O4  <0> d          51.701  48.918  41.539  0.00  0.00    -0.386 OA
ATOM     37  C15 <0> d          52.463  49.345  40.408  0.00  0.00     0.202 C 
ENDMDL
MODEL 4
REMARK VINA RESULT:      -6.6      2.638      4.581
ATOM      1  C8  <0> d          49.961  49.662  39.652  0.00  0.00     0.188 C 
ATOM      2  C9  <0> d          48.865  49.765  40.714  0.00  0.00     0.246 C 
ATOM      3  C10 <0> d          48.831  48.476  41.538  0.00  0.00     0.182 C 
ATOM      4  C11 <0> d          50.183  48.269  42.220  0.00  0.00     0.184 C 
ATOM      5  C12 <0> d          51.281  48.166  41.158  0.00  0.00     0.247 C 
ATOM      6  C13 <0> d          51.315  49.455  40.334  0.00  0.00     0.182 C 
ATOM      7  O2  <0> d          49.994  50.866  38.884  0.00  0.00    -0.349 OA
ATOM      8  C7  <0> d          49.281  50.785  37.646  0.00  0.00     0.291 C 
ATOM      9  C6  <0> d          49.142  52.188  37.046  0.00  0.00     0.238 C 
ATOM     10  C5  <0> d          50.537  52.746  36.743  0.00  0.00     0.040 C 
ATOM     11  C4  <0> d          51.269  51.782  35.805  0.00  0.00     0.036 C 
ATOM     12  C3  <0> d          51.326  50.396  36.454  0.00  0.00     0.154 C 
ATOM     13  O1  <0> d          49.999  49.948  36.737  0.00  0.00    -0.352 OA
ATOM     14  N3  <0> d          48.474  53.064  38.024  0.00  0.00    -0.070 N 
ATOM     15  H28 <0> d          48.255  53.962  37.593  0.00  0.00     0.274 HD
ATOM     16  H29 <0> d          47.616  52.628  38.355  0.00  0.00     0.274 HD
ATOM     17  H35 <0> d          49.102  53.220  38.821  0.00  0.00     0.274 HD
ATOM     18  C2  <0> d          52.003  49.412  35.497  0.00  0.00     0.208 C 
ATOM     19  C1  <0> d          51.070  49.123  34.320  0.00  0.00     0.042 C 
ATOM     20  N4  <0> d          52.312  48.170  36.225  0.00  0.00    -0.073 N 
ATOM     21  H30 <0> d          53.248  47.846  35.984  0.00  0.00     0.274 HD
ATOM     22  H31 <0> d          52.258  48.330  37.230  0.00  0.00     0.274 HD
ATOM     23  H36 <0> d          51.629  47.448  35.964  0.00  0.00     0.274 HD
ATOM     24  O3  <0> d          51.589  50.562  41.195  0.00  0.00    -0.391 OA
ATOM     25  H18 <0> d          52.092  50.330  41.987  0.00  0.00     0.210 HD
ATOM     26  N2  <0> d          49.170  50.897  41.607  0.00  0.00    -0.070 N 
ATOM     27  H26 <0> d          48.979  51.777  41.132  0.00  0.00     0.274 HD
ATOM     28  H27 <0> d          48.604  50.838  42.452  0.00  0.00     0.274 HD
ATOM     29  H34 <0> d          50.163  50.865  41.867  0.00  0.00     0.274 HD
ATOM     30  N1  <0> d          52.582  47.971  41.823  0.00  0.00    -0.070 N 
ATOM     31  C14 <0> d          52.609  46.675  42.524  0.00  0.00     0.267 C 
ATOM     32  H32 <0> d          52.732  48.727  42.502  0.00  0.00     0.277 HD
ATOM     33  H33 <0> d          53.329  47.991  41.119  0.00  0.00     0.277 HD
ATOM     34  O5  <0> d          47.805  48.572  42.530  0.00  0.00    -0.391 OA
ATOM     35  H25 <0> d          46.968  48.921  42.198  0.00  0.00     0.210 HD
ATOM     36  O4  <0> d          50.457  49.377  43.080  0.00  0.00    -0.386 OA
ATOM     37  C15 <0> d          50.477  49.043  44.470  0.00  0.00     0.202 C 
ENDMDL
MODEL 5
REMARK VINA RESULT:      -6.5      2.277      2.864
ATOM      1  C8  <0> d          50.930  48.946  39.838  0.00  0.00     0.188 C 
ATOM      2  C9  <0> d          51.943  47.945  40.397  0.00  0.00     0.246 C 
ATOM      3  C10 <0> d          52.054  48.125  41.913  0.00  0.00     0.182 C 
ATOM      4  C11 <0> d          50.689  47.883  42.557  0.00  0.00     0.184 C 
ATOM      5  C12 <0> d          49.675  48.884  41.998  0.00  0.00     0.247 C 
ATOM      6  C13 <0> d          49.563  48.704  40.483  0.00  0.00     0.182 C 
ATOM      7  O2  <0> d          50.825  48.777  38.423  0.00  0.00    -0.349 OA
ATOM      8  C7  <0> d          51.926  49.321  37.689  0.00  0.00     0.291 C 
ATOM      9  C6  <0> d          52.100  48.543  36.381  0.00  0.00     0.238 C 
ATOM     10  C5  <0> d          50.840  48.714  35.524  0.00  0.00     0.040 C 
ATOM     11  C4  <0> d          50.596  50.208  35.286  0.00  0.00     0.036 C 
ATOM     12  C3  <0> d          50.480  50.919  36.637  0.00  0.00     0.154 C 
ATOM     13  O1  <0> d          51.670  50.696  37.396  0.00  0.00    -0.352 OA
ATOM     14  N3  <0> d          52.280  47.115  36.691  0.00  0.00    -0.070 N 
ATOM     15  H28 <0> d          51.557  46.565  36.228  0.00  0.00     0.274 HD
ATOM     16  H29 <0> d          53.197  46.802  36.376  0.00  0.00     0.274 HD
ATOM     17  H35 <0> d          52.208  46.978  37.706  0.00  0.00     0.274 HD
ATOM     18  C2  <0> d          50.296  52.421  36.408  0.00  0.00     0.208 C 
ATOM     19  C1  <0> d          51.498  53.175  36.979  0.00  0.00     0.042 C 
ATOM     20  N4  <0> d          49.054  52.858  37.070  0.00  0.00    -0.073 N 
ATOM     21  H30 <0> d          49.059  53.870  37.189  0.00  0.00     0.274 HD
ATOM     22  H31 <0> d          48.246  52.587  36.512  0.00  0.00     0.274 HD
ATOM     23  H36 <0> d          48.990  52.412  37.992  0.00  0.00     0.274 HD
ATOM     24  O3  <0> d          49.129  47.374  40.193  0.00  0.00    -0.391 OA
ATOM     25  H18 <0> d          49.849  46.733  40.115  0.00  0.00     0.210 HD
ATOM     26  N2  <0> d          51.472  46.579  40.109  0.00  0.00    -0.070 N 
ATOM     27  H26 <0> d          51.726  46.315  39.159  0.00  0.00     0.274 HD
ATOM     28  H27 <0> d          51.888  45.920  40.766  0.00  0.00     0.274 HD
ATOM     29  H34 <0> d          50.450  46.545  40.204  0.00  0.00     0.274 HD
ATOM     30  N1  <0> d          48.361  48.642  42.621  0.00  0.00    -0.070 N 
ATOM     31  C14 <0> d          47.459  49.781  42.374  0.00  0.00     0.267 C 
ATOM     32  H32 <0> d          48.484  48.521  43.634  0.00  0.00     0.277 HD
ATOM     33  H33 <0> d          47.948  47.790  42.222  0.00  0.00     0.277 HD
ATOM     34  O5  <0> d          53.001  47.190  42.434  0.00  0.00    -0.391 OA
ATOM     35  H25 <0> d          53.879  47.564  42.590  0.00  0.00     0.210 HD
ATOM     36  O4  <0> d          50.254  46.553  42.266  0.00  0.00    -0.386 OA
ATOM     37  C15 <0> d          49.924  45.782  43.424  0.00  0.00     0.202 C 
ENDMDL
MODEL 6
REMARK VINA RESULT:      -6.5      2.176      6.589
ATOM      1  C8  <0> d          50.161  47.393  40.832  0.00  0.00     0.188 C 
ATOM      2  C9  <0> d          51.064  46.503  39.977  0.00  0.00     0.246 C 
ATOM      3  C10 <0> d          50.503  46.424  38.555  0.00  0.00     0.182 C 
ATOM      4  C11 <0> d          50.447  47.826  37.950  0.00  0.00     0.184 C 
ATOM      5  C12 <0> d          49.543  48.717  38.805  0.00  0.00     0.247 C 
ATOM      6  C13 <0> d          50.104  48.797  40.226  0.00  0.00     0.182 C 
ATOM      7  O2  <0> d          50.685  47.468  42.160  0.00  0.00    -0.349 OA
ATOM      8  C7  <0> d          51.126  46.212  42.683  0.00  0.00     0.291 C 
ATOM      9  C6  <0> d          52.228  46.451  43.720  0.00  0.00     0.238 C 
ATOM     10  C5  <0> d          51.653  47.264  44.886  0.00  0.00     0.040 C 
ATOM     11  C4  <0> d          50.452  46.516  45.473  0.00  0.00     0.036 C 
ATOM     12  C3  <0> d          49.420  46.276  44.367  0.00  0.00     0.154 C 
ATOM     13  O1  <0> d          50.026  45.542  43.302  0.00  0.00    -0.352 OA
ATOM     14  N3  <0> d          53.320  47.214  43.094  0.00  0.00    -0.070 N 
ATOM     15  H28 <0> d          53.049  48.192  42.994  0.00  0.00     0.274 HD
ATOM     16  H29 <0> d          54.162  47.152  43.663  0.00  0.00     0.274 HD
ATOM     17  H35 <0> d          53.515  46.824  42.164  0.00  0.00     0.274 HD
ATOM     18  C2  <0> d          48.244  45.477  44.933  0.00  0.00     0.208 C 
ATOM     19  C1  <0> d          47.547  46.297  46.021  0.00  0.00     0.042 C 
ATOM     20  N4  <0> d          48.749  44.210  45.489  0.00  0.00    -0.073 N 
ATOM     21  H30 <0> d          47.970  43.626  45.792  0.00  0.00     0.274 HD
ATOM     22  H31 <0> d          49.293  43.711  44.788  0.00  0.00     0.274 HD
ATOM     23  H36 <0> d          49.350  44.413  46.297  0.00  0.00     0.274 HD
ATOM     24  O3  <0> d          51.420  49.352  40.188  0.00  0.00    -0.391 OA
ATOM     25  H18 <0> d          51.450  50.273  39.893  0.00  0.00     0.210 HD
ATOM     26  N2  <0> d          52.412  47.098  39.929  0.00  0.00    -0.070 N 
ATOM     27  H26 <0> d          52.825  46.952  39.010  0.00  0.00     0.274 HD
ATOM     28  H27 <0> d          52.359  48.098  40.121  0.00  0.00     0.274 HD
ATOM     29  H34 <0> d          53.005  46.652  40.638  0.00  0.00     0.274 HD
ATOM     30  N1  <0> d          49.497  50.068  38.217  0.00  0.00    -0.070 N 
ATOM     31  C14 <0> d          48.917  50.017  36.863  0.00  0.00     0.267 C 
ATOM     32  H32 <0> d          50.450  50.446  38.163  0.00  0.00     0.277 HD
ATOM     33  H33 <0> d          48.920  50.676  38.809  0.00  0.00     0.277 HD
ATOM     34  O5  <0> d          51.348  45.592  37.757  0.00  0.00    -0.391 OA
ATOM     35  H25 <0> d          52.037  46.072  37.280  0.00  0.00     0.210 HD
ATOM     36  O4  <0> d          51.763  48.382  37.912  0.00  0.00    -0.386 OA
ATOM     37  C15 <0> d          52.259  48.613  36.591  0.00  0.00     0.202 C 
ENDMDL
MODEL 7
REMARK VINA RESULT:      -6.5      2.759      4.587
ATOM      1  C8  <0> d          49.010  49.402  41.171  0.00  0.00     0.188 C 
ATOM      2  C9  <0> d          47.495  49.214  41.261  0.00  0.00     0.246 C 
ATOM      3  C10 <0> d          47.038  49.436  42.705  0.00  0.00     0.182 C 
ATOM      4  C11 <0> d          47.404  50.854  43.143  0.00  0.00     0.184 C 
ATOM      5  C12 <0> d          48.920  51.042  43.054  0.00  0.00     0.247 C 
ATOM      6  C13 <0> d          49.376  50.821  41.611  0.00  0.00     0.182 C 
ATOM      7  O2  <0> d          49.436  49.197  39.823  0.00  0.00    -0.349 OA
ATOM      8  C7  <0> d          48.934  47.995  39.231  0.00  0.00     0.291 C 
ATOM      9  C6  <0> d          49.259  47.990  37.734  0.00  0.00     0.238 C 
ATOM     10  C5  <0> d          50.781  47.997  37.550  0.00  0.00     0.040 C 
ATOM     11  C4  <0> d          51.379  46.791  38.281  0.00  0.00     0.036 C 
ATOM     12  C3  <0> d          50.972  46.844  39.756  0.00  0.00     0.154 C 
ATOM     13  O1  <0> d          49.547  46.865  39.855  0.00  0.00    -0.352 OA
ATOM     14  N3  <0> d          48.694  49.200  37.115  0.00  0.00    -0.070 N 
ATOM     15  H28 <0> d          47.682  49.215  37.241  0.00  0.00     0.274 HD
ATOM     16  H29 <0> d          49.100  50.032  37.539  0.00  0.00     0.274 HD
ATOM     17  H35 <0> d          48.907  49.197  36.110  0.00  0.00     0.274 HD
ATOM     18  C2  <0> d          51.516  45.610  40.480  0.00  0.00     0.208 C 
ATOM     19  C1  <0> d          51.304  44.373  39.606  0.00  0.00     0.042 C 
ATOM     20  N4  <0> d          50.812  45.458  41.765  0.00  0.00    -0.073 N 
ATOM     21  H30 <0> d          49.832  45.719  41.660  0.00  0.00     0.274 HD
ATOM     22  H31 <0> d          50.873  44.494  42.086  0.00  0.00     0.274 HD
ATOM     23  H36 <0> d          51.250  46.072  42.463  0.00  0.00     0.274 HD
ATOM     24  O3  <0> d          48.728  51.766  40.757  0.00  0.00    -0.391 OA
ATOM     25  H18 <0> d          47.821  51.525  40.520  0.00  0.00     0.210 HD
ATOM     26  N2  <0> d          46.839  50.208  40.392  0.00  0.00    -0.070 N 
ATOM     27  H26 <0> d          45.952  49.842  40.052  0.00  0.00     0.274 HD
ATOM     28  H27 <0> d          46.672  51.069  40.911  0.00  0.00     0.274 HD
ATOM     29  H34 <0> d          47.447  50.412  39.591  0.00  0.00     0.274 HD
ATOM     30  N1  <0> d          49.263  52.413  43.475  0.00  0.00    -0.070 N 
ATOM     31  C14 <0> d          48.834  52.643  44.866  0.00  0.00     0.267 C 
ATOM     32  H32 <0> d          48.790  53.085  42.859  0.00  0.00     0.277 HD
ATOM     33  H33 <0> d          50.280  52.543  43.408  0.00  0.00     0.277 HD
ATOM     34  O5  <0> d          45.622  49.259  42.788  0.00  0.00    -0.391 OA
ATOM     35  H25 <0> d          45.175  49.917  43.336  0.00  0.00     0.210 HD
ATOM     36  O4  <0> d          46.755  51.798  42.289  0.00  0.00    -0.386 OA
ATOM     37  C15 <0> d          45.729  52.557  42.933  0.00  0.00     0.202 C 
ENDMDL
MODEL 8
REMARK VINA RESULT:      -6.4      2.585      6.348
ATOM      1  C8  <0> d          49.749  47.559  42.725  0.00  0.00     0.188 C 
ATOM      2  C9  <0> d          51.184  47.240  42.302  0.00  0.00     0.246 C 
ATOM      3  C10 <0> d          51.300  47.329  40.779  0.00  0.00     0.182 C 
ATOM      4  C11 <0> d          50.935  48.742  40.322  0.00  0.00     0.184 C 
ATOM      5  C12 <0> d          49.499  49.061  40.744  0.00  0.00     0.247 C 
ATOM      6  C13 <0> d          49.384  48.973  42.267  0.00  0.00     0.182 C 
ATOM      7  O2  <0> d          49.642  47.476  44.147  0.00  0.00    -0.349 OA
ATOM      8  C7  <0> d          48.922  46.330  44.611  0.00  0.00     0.291 C 
ATOM      9  C6  <0> d          49.412  45.954  46.012  0.00  0.00     0.238 C 
ATOM     10  C5  <0> d          49.116  47.109  46.975  0.00  0.00     0.040 C 
ATOM     11  C4  <0> d          47.615  47.413  46.945  0.00  0.00     0.036 C 
ATOM     12  C3  <0> d          47.196  47.734  45.507  0.00  0.00     0.154 C 
ATOM     13  O1  <0> d          47.526  46.632  44.659  0.00  0.00    -0.352 OA
ATOM     14  N3  <0> d          50.866  45.725  45.968  0.00  0.00    -0.070 N 
ATOM     15  H28 <0> d          51.359  46.562  46.276  0.00  0.00     0.274 HD
ATOM     16  H29 <0> d          51.115  44.943  46.571  0.00  0.00     0.274 HD
ATOM     17  H35 <0> d          51.144  45.507  45.004  0.00  0.00     0.274 HD
ATOM     18  C2  <0> d          45.687  47.981  45.459  0.00  0.00     0.208 C 
ATOM     19  C1  <0> d          45.417  49.487  45.442  0.00  0.00     0.042 C 
ATOM     20  N4  <0> d          45.061  47.360  46.639  0.00  0.00    -0.073 N 
ATOM     21  H30 <0> d          45.730  46.753  47.111  0.00  0.00     0.274 HD
ATOM     22  H31 <0> d          44.743  48.080  47.286  0.00  0.00     0.274 HD
ATOM     23  H36 <0> d          44.255  46.801  46.337  0.00  0.00     0.274 HD
ATOM     24  O3  <0> d          50.277  49.913  42.867  0.00  0.00    -0.391 OA
ATOM     25  H18 <0> d          49.951  50.823  42.861  0.00  0.00     0.210 HD
ATOM     26  N2  <0> d          52.092  48.229  42.911  0.00  0.00    -0.070 N 
ATOM     27  H26 <0> d          51.555  48.921  43.430  0.00  0.00     0.274 HD
ATOM     28  H27 <0> d          52.743  47.764  43.542  0.00  0.00     0.274 HD
ATOM     29  H34 <0> d          52.623  48.702  42.171  0.00  0.00     0.274 HD
ATOM     30  N1  <0> d          49.157  50.426  40.303  0.00  0.00    -0.070 N 
ATOM     31  C14 <0> d          49.039  50.474  38.834  0.00  0.00     0.267 C 
ATOM     32  H32 <0> d          49.894  51.074  40.605  0.00  0.00     0.277 HD
ATOM     33  H33 <0> d          48.263  50.704  40.724  0.00  0.00     0.277 HD
ATOM     34  O5  <0> d          52.641  47.030  40.385  0.00  0.00    -0.391 OA
ATOM     35  H25 <0> d          53.140  46.524  41.039  0.00  0.00     0.210 HD
ATOM     36  O4  <0> d          51.828  49.682  40.922  0.00  0.00    -0.386 OA
ATOM     37  C15 <0> d          52.618  50.416  39.984  0.00  0.00     0.202 C 
ENDMDL
MODEL 9
REMARK VINA RESULT:      -6.4      2.623      3.301
ATOM      1  C8  <0> d          50.184  48.726  39.899  0.00  0.00     0.188 C 
ATOM      2  C9  <0> d          49.398  47.563  40.508  0.00  0.00     0.246 C 
ATOM      3  C10 <0> d          49.290  47.759  42.022  0.00  0.00     0.182 C 
ATOM      4  C11 <0> d          48.567  49.073  42.316  0.00  0.00     0.184 C 
ATOM      5  C12 <0> d          49.353  50.237  41.707  0.00  0.00     0.247 C 
ATOM      6  C13 <0> d          49.461  50.042  40.194  0.00  0.00     0.182 C 
ATOM      7  O2  <0> d          50.285  48.544  38.485  0.00  0.00    -0.349 OA
ATOM      8  C7  <0> d          51.618  48.649  37.978  0.00  0.00     0.291 C 
ATOM      9  C6  <0> d          51.730  47.860  36.670  0.00  0.00     0.238 C 
ATOM     10  C5  <0> d          50.788  48.476  35.630  0.00  0.00     0.040 C 
ATOM     11  C4  <0> d          51.140  49.955  35.449  0.00  0.00     0.036 C 
ATOM     12  C3  <0> d          51.050  50.662  36.805  0.00  0.00     0.154 C 
ATOM     13  O1  <0> d          51.927  50.023  37.733  0.00  0.00    -0.352 OA
ATOM     14  N3  <0> d          51.330  46.464  36.916  0.00  0.00    -0.070 N 
ATOM     15  H28 <0> d          52.131  45.926  37.245  0.00  0.00     0.274 HD
ATOM     16  H29 <0> d          50.589  46.430  37.613  0.00  0.00     0.274 HD
ATOM     17  H35 <0> d          50.987  46.052  36.040  0.00  0.00     0.274 HD
ATOM     18  C2  <0> d          51.459  52.128  36.643  0.00  0.00     0.208 C 
ATOM     19  C1  <0> d          50.439  53.022  37.352  0.00  0.00     0.042 C 
ATOM     20  N4  <0> d          51.518  52.454  35.208  0.00  0.00    -0.073 N 
ATOM     21  H30 <0> d          50.580  52.454  34.810  0.00  0.00     0.274 HD
ATOM     22  H31 <0> d          51.943  53.370  35.073  0.00  0.00     0.274 HD
ATOM     23  H36 <0> d          52.086  51.748  34.726  0.00  0.00     0.274 HD
ATOM     24  O3  <0> d          48.151  50.003  39.624  0.00  0.00    -0.391 OA
ATOM     25  H18 <0> d          48.123  49.640  38.728  0.00  0.00     0.210 HD
ATOM     26  N2  <0> d          48.044  47.548  39.928  0.00  0.00    -0.070 N 
ATOM     27  H26 <0> d          48.075  47.864  38.960  0.00  0.00     0.274 HD
ATOM     28  H27 <0> d          47.659  46.605  39.963  0.00  0.00     0.274 HD
ATOM     29  H34 <0> d          47.437  48.177  40.467  0.00  0.00     0.274 HD
ATOM     30  N1  <0> d          48.648  51.500  41.992  0.00  0.00    -0.070 N 
ATOM     31  C14 <0> d          48.838  51.886  43.402  0.00  0.00     0.267 C 
ATOM     32  H32 <0> d          47.645  51.377  41.807  0.00  0.00     0.277 HD
ATOM     33  H33 <0> d          49.019  52.240  41.385  0.00  0.00     0.277 HD
ATOM     34  O5  <0> d          48.556  46.672  42.590  0.00  0.00    -0.391 OA
ATOM     35  H25 <0> d          47.916  46.938  43.264  0.00  0.00     0.210 HD
ATOM     36  O4  <0> d          47.257  49.034  41.746  0.00  0.00    -0.386 OA
ATOM     37  C15 <0> d          46.214  49.381  42.660  0.00  0.00     0.202 C 
ENDMDL
MODEL 10
REMARK VINA RESULT:      -6.3      2.778      7.379
ATOM      1  C8  <0> d          50.473  50.526  38.941  0.00  0.00     0.188 C 
ATOM      2  C9  <0> d          50.210  51.690  37.984  0.00  0.00     0.246 C 
ATOM      3  C10 <0> d          51.412  51.866  37.053  0.00  0.00     0.182 C 
ATOM      4  C11 <0> d          51.628  50.583  36.250  0.00  0.00     0.184 C 
ATOM      5  C12 <0> d          51.892  49.418  37.208  0.00  0.00     0.247 C 
ATOM      6  C13 <0> d          50.690  49.242  38.138  0.00  0.00     0.182 C 
ATOM      7  O2  <0> d          49.350  50.361  39.810  0.00  0.00    -0.349 OA
ATOM      8  C7  <0> d          49.449  51.094  41.034  0.00  0.00     0.291 C 
ATOM      9  C6  <0> d          48.071  51.162  41.700  0.00  0.00     0.238 C 
ATOM     10  C5  <0> d          47.609  49.741  42.045  0.00  0.00     0.040 C 
ATOM     11  C4  <0> d          48.658  49.078  42.943  0.00  0.00     0.036 C 
ATOM     12  C3  <0> d          50.012  49.091  42.227  0.00  0.00     0.154 C 
ATOM     13  O1  <0> d          50.369  50.437  41.909  0.00  0.00    -0.352 OA
ATOM     14  N3  <0> d          47.112  51.765  40.759  0.00  0.00    -0.070 N 
ATOM     15  H28 <0> d          47.434  51.630  39.801  0.00  0.00     0.274 HD
ATOM     16  H29 <0> d          46.195  51.337  40.873  0.00  0.00     0.274 HD
ATOM     17  H35 <0> d          47.039  52.771  40.950  0.00  0.00     0.274 HD
ATOM     18  C2  <0> d          51.078  48.484  43.143  0.00  0.00     0.208 C 
ATOM     19  C1  <0> d          50.662  47.065  43.537  0.00  0.00     0.042 C 
ATOM     20  N4  <0> d          51.219  49.329  44.341  0.00  0.00    -0.073 N 
ATOM     21  H30 <0> d          50.531  49.060  45.042  0.00  0.00     0.274 HD
ATOM     22  H31 <0> d          52.156  49.232  44.730  0.00  0.00     0.274 HD
ATOM     23  H36 <0> d          51.065  50.311  44.080  0.00  0.00     0.274 HD
ATOM     24  O3  <0> d          49.524  48.964  37.361  0.00  0.00    -0.391 OA
ATOM     25  H18 <0> d          49.355  49.610  36.660  0.00  0.00     0.210 HD
ATOM     26  N2  <0> d          49.018  51.381  37.174  0.00  0.00    -0.070 N 
ATOM     27  H26 <0> d          48.188  51.373  37.764  0.00  0.00     0.274 HD
ATOM     28  H27 <0> d          48.904  52.078  36.440  0.00  0.00     0.274 HD
ATOM     29  H34 <0> d          49.132  50.456  36.743  0.00  0.00     0.274 HD
ATOM     30  N1  <0> d          52.095  48.185  36.427  0.00  0.00    -0.070 N 
ATOM     31  C14 <0> d          52.085  47.009  37.315  0.00  0.00     0.267 C 
ATOM     32  H32 <0> d          53.000  48.236  35.943  0.00  0.00     0.277 HD
ATOM     33  H33 <0> d          51.342  48.093  35.735  0.00  0.00     0.277 HD
ATOM     34  O5  <0> d          51.166  52.953  36.159  0.00  0.00    -0.391 OA
ATOM     35  H25 <0> d          50.996  53.796  36.600  0.00  0.00     0.210 HD
ATOM     36  O4  <0> d          50.462  50.305  35.473  0.00  0.00    -0.386 OA
ATOM     37  C15 <0> d          50.721  50.118  34.080  0.00  0.00     0.202 C 
ENDMDL
