MODEL
REMARK VINA RESULT:      -8.9    
REMARK AD4  RESULT:      -9.63   
REMARK FIN. RESULT:      -9.26   
ATOM      1  C1  <0> d          50.862  45.840  39.770  0.00  0.00     0.019 A 
ATOM      2  C2  <0> d          51.050  46.106  38.433  0.00  0.00     0.030 A 
ATOM      3  C3  <0> d          51.759  47.237  38.040  0.00  0.00     0.028 A 
ATOM      4  C4  <0> d          52.280  48.103  38.997  0.00  0.00     0.030 A 
ATOM      5  C5  <0> d          52.095  47.845  40.335  0.00  0.00     0.019 A 
ATOM      6  C6  <0> d          51.383  46.709  40.734  0.00  0.00     0.032 A 
ATOM      7  N2  <0> d          51.947  47.502  36.688  0.00  0.00    -0.384 N 
ATOM      8  H12 <0> d          52.839  47.475  36.308  0.00  0.00     0.160 HD
ATOM      9  C13 <0> d          50.798  47.824  35.838  0.00  0.00     0.180 C 
ATOM     10  C14 <0> d          50.322  49.220  36.144  0.00  0.00     0.070 A 
ATOM     11  N4  <0> d          49.757  49.479  37.306  0.00  0.00    -0.241 NA
ATOM     12  C17 <0> d          49.343  50.710  37.575  0.00  0.00     0.174 A 
ATOM     13  C16 <0> d          49.497  51.736  36.613  0.00  0.00     0.202 A 
ATOM     14  C18 <0> d          48.710  51.053  38.859  0.00  0.00     0.292 A 
ATOM     15  N3  <0> d          50.066  51.454  35.441  0.00  0.00    -0.237 NA
ATOM     16  N6  <0> d          49.066  52.978  36.905  0.00  0.00    -0.043 NA
ATOM     17  C15 <0> d          50.477  50.226  35.195  0.00  0.00     0.147 A 
ATOM     18  C19 <0> d          48.506  53.261  38.056  0.00  0.00     0.703 A 
ATOM     19  N5  <0> d          48.316  52.335  39.040  0.00  0.00    -0.152 N 
ATOM     20  H2  <0> d          47.884  52.605  39.900  0.00  0.00     0.187 HD
ATOM     21  O4  <0> d          48.549  50.215  39.728  0.00  0.00    -0.265 OA
ATOM     22  N7  <0> d          48.091  54.548  38.281  0.00  0.00    -0.233 N 
ATOM     23  H16 <0> d          48.626  55.291  37.963  0.00  0.00     0.174 HD
ATOM     24  H17 <0> d          47.265  54.714  38.759  0.00  0.00     0.174 HD
ATOM     25  C7  <0> d          51.189  46.424  42.169  0.00  0.00     0.252 C 
ATOM     26  O1  <0> d          51.833  45.544  42.706  0.00  0.00    -0.268 OA
ATOM     27  N1  <0> d          50.296  47.138  42.882  0.00  0.00    -0.342 N 
ATOM     28  H7  <0> d          49.782  47.840  42.453  0.00  0.00     0.163 HD
ATOM     29  C8  <0> d          50.103  46.855  44.306  0.00  0.00     0.186 C 
ATOM     30  C9  <0> d          48.677  46.349  44.537  0.00  0.00     0.046 C 
ATOM     31  C10 <0> d          48.717  44.870  44.927  0.00  0.00     0.116 C 
ATOM     32  C11 <0> d          47.433  44.499  45.623  0.00  0.00     0.172 C 
ATOM     33  O2  <0> d          46.740  45.360  46.112  0.00  0.00    -0.648 OA
ATOM     34  O5  <0> d          47.059  43.212  45.701  0.00  0.00    -0.648 OA
ATOM     35  C12 <0> d          50.323  48.115  45.104  0.00  0.00     0.196 C 
ATOM     36  O3  <0> d          49.636  48.347  46.070  0.00  0.00    -0.646 OA
ATOM     37  O6  <0> d          51.284  48.979  44.741  0.00  0.00    -0.646 OA
ENDMDL
MODEL
REMARK VINA RESULT:      -9.0    
REMARK AD4  RESULT:      -7.84   
REMARK FIN. RESULT:      -8.40   
ATOM      1  C1  <0> d          46.912  51.402  45.798  0.00  0.00     0.019 A 
ATOM      2  C2  <0> d          45.701  51.975  45.486  0.00  0.00     0.030 A 
ATOM      3  C3  <0> d          44.656  51.185  45.012  0.00  0.00     0.028 A 
ATOM      4  C4  <0> d          44.836  49.814  44.852  0.00  0.00     0.030 A 
ATOM      5  C5  <0> d          46.045  49.234  45.163  0.00  0.00     0.019 A 
ATOM      6  C6  <0> d          47.095  50.025  45.639  0.00  0.00     0.032 A 
ATOM      7  N2  <0> d          43.434  51.766  44.697  0.00  0.00    -0.384 N 
ATOM      8  H12 <0> d          43.386  52.456  44.017  0.00  0.00     0.160 HD
ATOM      9  C13 <0> d          42.217  51.338  45.394  0.00  0.00     0.180 C 
ATOM     10  C14 <0> d          41.263  50.721  44.405  0.00  0.00     0.070 A 
ATOM     11  N4  <0> d          41.494  49.511  43.939  0.00  0.00    -0.241 NA
ATOM     12  C17 <0> d          40.650  48.969  43.072  0.00  0.00     0.174 A 
ATOM     13  C16 <0> d          39.512  49.691  42.644  0.00  0.00     0.202 A 
ATOM     14  C18 <0> d          40.860  47.617  42.526  0.00  0.00     0.292 A 
ATOM     15  N3  <0> d          39.296  50.916  43.123  0.00  0.00    -0.237 NA
ATOM     16  N6  <0> d          38.670  49.123  41.760  0.00  0.00    -0.043 NA
ATOM     17  C15 <0> d          40.145  51.436  43.988  0.00  0.00     0.147 A 
ATOM     18  C19 <0> d          38.877  47.918  41.287  0.00  0.00     0.703 A 
ATOM     19  N5  <0> d          39.946  47.151  41.644  0.00  0.00    -0.152 N 
ATOM     20  H2  <0> d          40.055  46.237  41.252  0.00  0.00     0.187 HD
ATOM     21  O4  <0> d          41.820  46.945  42.855  0.00  0.00    -0.265 OA
ATOM     22  N7  <0> d          37.976  47.406  40.390  0.00  0.00    -0.233 N 
ATOM     23  H16 <0> d          37.624  47.968  39.682  0.00  0.00     0.174 HD
ATOM     24  H17 <0> d          37.689  46.483  40.464  0.00  0.00     0.174 HD
ATOM     25  C7  <0> d          48.391  49.407  45.979  0.00  0.00     0.252 C 
ATOM     26  O1  <0> d          49.128  49.943  46.782  0.00  0.00    -0.268 OA
ATOM     27  N1  <0> d          48.755  48.247  45.398  0.00  0.00    -0.342 N 
ATOM     28  H7  <0> d          48.166  47.819  44.758  0.00  0.00     0.163 HD
ATOM     29  C8  <0> d          50.041  47.631  45.735  0.00  0.00     0.186 C 
ATOM     30  C9  <0> d          50.856  47.417  44.458  0.00  0.00     0.046 C 
ATOM     31  C10 <0> d          49.915  47.373  43.254  0.00  0.00     0.116 C 
ATOM     32  C11 <0> d          49.747  45.947  42.799  0.00  0.00     0.172 C 
ATOM     33  O2  <0> d          50.556  45.452  42.050  0.00  0.00    -0.648 OA
ATOM     34  O5  <0> d          48.699  45.224  43.227  0.00  0.00    -0.648 OA
ATOM     35  C12 <0> d          49.803  46.304  46.407  0.00  0.00     0.196 C 
ATOM     36  O3  <0> d          50.735  45.577  46.657  0.00  0.00    -0.646 OA
ATOM     37  O6  <0> d          48.554  45.928  46.727  0.00  0.00    -0.646 OA
ENDMDL
MODEL
REMARK VINA RESULT:      -8.9    
REMARK AD4  RESULT:      -7.84   
REMARK FIN. RESULT:      -8.35   
ATOM      1  C1  <0> d          44.265  48.708  44.439  0.00  0.00     0.019 A 
ATOM      2  C2  <0> d          42.990  49.222  44.451  0.00  0.00     0.030 A 
ATOM      3  C3  <0> d          42.779  50.558  44.775  0.00  0.00     0.028 A 
ATOM      4  C4  <0> d          43.858  51.380  45.089  0.00  0.00     0.030 A 
ATOM      5  C5  <0> d          45.137  50.873  45.079  0.00  0.00     0.019 A 
ATOM      6  C6  <0> d          45.352  49.530  44.754  0.00  0.00     0.032 A 
ATOM      7  N2  <0> d          41.487  51.074  44.787  0.00  0.00    -0.384 N 
ATOM      8  H12 <0> d          40.936  50.982  45.579  0.00  0.00     0.160 HD
ATOM      9  C13 <0> d          40.962  51.757  43.602  0.00  0.00     0.180 C 
ATOM     10  C14 <0> d          39.759  51.011  43.085  0.00  0.00     0.070 A 
ATOM     11  N4  <0> d          39.923  49.890  42.413  0.00  0.00    -0.241 NA
ATOM     12  C17 <0> d          38.863  49.233  41.963  0.00  0.00     0.174 A 
ATOM     13  C16 <0> d          37.563  49.741  42.194  0.00  0.00     0.202 A 
ATOM     14  C18 <0> d          38.991  47.973  41.212  0.00  0.00     0.292 A 
ATOM     15  N3  <0> d          37.416  50.879  42.871  0.00  0.00    -0.237 NA
ATOM     16  N6  <0> d          36.500  49.060  41.725  0.00  0.00    -0.043 NA
ATOM     17  C15 <0> d          38.483  51.515  43.316  0.00  0.00     0.147 A 
ATOM     18  C19 <0> d          36.638  47.940  41.059  0.00  0.00     0.703 A 
ATOM     19  N5  <0> d          37.852  47.378  40.788  0.00  0.00    -0.152 N 
ATOM     20  H2  <0> d          37.900  46.521  40.277  0.00  0.00     0.187 HD
ATOM     21  O4  <0> d          40.082  47.484  40.980  0.00  0.00    -0.265 OA
ATOM     22  N7  <0> d          35.509  47.303  40.611  0.00  0.00    -0.233 N 
ATOM     23  H16 <0> d          35.159  47.501  39.730  0.00  0.00     0.174 HD
ATOM     24  H17 <0> d          35.062  46.656  41.178  0.00  0.00     0.174 HD
ATOM     25  C7  <0> d          46.723  48.984  44.735  0.00  0.00     0.252 C 
ATOM     26  O1  <0> d          47.564  49.477  44.009  0.00  0.00    -0.268 OA
ATOM     27  N1  <0> d          47.042  47.938  45.523  0.00  0.00    -0.342 N 
ATOM     28  H7  <0> d          46.370  47.544  46.102  0.00  0.00     0.163 HD
ATOM     29  C8  <0> d          48.402  47.396  45.504  0.00  0.00     0.186 C 
ATOM     30  C9  <0> d          48.348  45.890  45.233  0.00  0.00     0.046 C 
ATOM     31  C10 <0> d          46.977  45.347  45.639  0.00  0.00     0.116 C 
ATOM     32  C11 <0> d          46.881  43.892  45.256  0.00  0.00     0.172 C 
ATOM     33  O2  <0> d          47.782  43.135  45.529  0.00  0.00    -0.648 OA
ATOM     34  O5  <0> d          45.794  43.438  44.612  0.00  0.00    -0.648 OA
ATOM     35  C12 <0> d          49.060  47.642  46.839  0.00  0.00     0.196 C 
ATOM     36  O3  <0> d          49.093  48.758  47.299  0.00  0.00    -0.646 OA
ATOM     37  O6  <0> d          49.610  46.620  47.514  0.00  0.00    -0.646 OA
ENDMDL
