MODEL 1
REMARK VINA RESULT:      -6.9      0.000      0.000
ATOM      1  C8  <0> d          50.440  47.765  41.614  0.00  0.00     0.188 C 
ATOM      2  C9  <0> d          51.018  46.619  42.447  0.00  0.00     0.246 C 
ATOM      3  C10 <0> d          51.558  47.170  43.768  0.00  0.00     0.182 C 
ATOM      4  C11 <0> d          50.423  47.844  44.542  0.00  0.00     0.184 C 
ATOM      5  C12 <0> d          49.846  48.990  43.709  0.00  0.00     0.247 C 
ATOM      6  C13 <0> d          49.306  48.437  42.388  0.00  0.00     0.182 C 
ATOM      7  O2  <0> d          49.936  47.249  40.380  0.00  0.00    -0.349 OA
ATOM      8  C7  <0> d          50.830  47.403  39.276  0.00  0.00     0.291 C 
ATOM      9  C6  <0> d          50.721  46.184  38.357  0.00  0.00     0.238 C 
ATOM     10  C5  <0> d          49.298  46.106  37.794  0.00  0.00     0.040 C 
ATOM     11  C4  <0> d          48.976  47.414  37.066  0.00  0.00     0.036 C 
ATOM     12  C3  <0> d          49.153  48.587  38.036  0.00  0.00     0.154 C 
ATOM     13  O1  <0> d          50.488  48.582  38.546  0.00  0.00    -0.352 OA
ATOM     14  N3  <0> d          50.995  44.965  39.138  0.00  0.00    -0.070 N 
ATOM     15  H28 <0> d          51.024  45.188  40.132  0.00  0.00     0.274 HD
ATOM     16  H29 <0> d          50.271  44.270  38.966  0.00  0.00     0.274 HD
ATOM     17  H35 <0> d          51.904  44.580  38.855  0.00  0.00     0.274 HD
ATOM     18  C2  <0> d          48.892  49.902  37.300  0.00  0.00     0.208 C 
ATOM     19  C1  <0> d          50.009  50.146  36.282  0.00  0.00     0.042 C 
ATOM     20  N4  <0> d          48.844  51.000  38.281  0.00  0.00    -0.073 N 
ATOM     21  H30 <0> d          49.060  51.886  37.826  0.00  0.00     0.274 HD
ATOM     22  H31 <0> d          47.917  51.052  38.702  0.00  0.00     0.274 HD
ATOM     23  H36 <0> d          49.536  50.824  39.019  0.00  0.00     0.274 HD
ATOM     24  O3  <0> d          48.280  47.481  42.657  0.00  0.00    -0.391 OA
ATOM     25  H18 <0> d          47.856  47.124  41.863  0.00  0.00     0.210 HD
ATOM     26  N2  <0> d          49.945  45.650  42.734  0.00  0.00    -0.070 N 
ATOM     27  H26 <0> d          49.503  45.872  43.626  0.00  0.00     0.274 HD
ATOM     28  H27 <0> d          49.245  45.674  41.994  0.00  0.00     0.274 HD
ATOM     29  H34 <0> d          50.346  44.706  42.786  0.00  0.00     0.274 HD
ATOM     30  N1  <0> d          48.750  49.630  44.459  0.00  0.00    -0.070 N 
ATOM     31  C14 <0> d          49.291  50.407  45.590  0.00  0.00     0.267 C 
ATOM     32  H32 <0> d          48.116  48.906  44.819  0.00  0.00     0.277 HD
ATOM     33  H33 <0> d          48.232  50.258  43.834  0.00  0.00     0.277 HD
ATOM     34  O5  <0> d          52.096  46.099  44.546  0.00  0.00    -0.391 OA
ATOM     35  H25 <0> d          51.610  45.269  44.463  0.00  0.00     0.210 HD
ATOM     36  O4  <0> d          49.396  46.886  44.811  0.00  0.00    -0.386 OA
ATOM     37  C15 <0> d          49.199  46.618  46.200  0.00  0.00     0.202 C 
ENDMDL
MODEL 2
REMARK VINA RESULT:      -6.8      1.850      2.763
ATOM      1  C8  <0> d          50.783  48.035  42.909  0.00  0.00     0.188 C 
ATOM      2  C9  <0> d          51.562  46.917  43.603  0.00  0.00     0.246 C 
ATOM      3  C10 <0> d          51.237  46.922  45.099  0.00  0.00     0.182 C 
ATOM      4  C11 <0> d          49.737  46.700  45.297  0.00  0.00     0.184 C 
ATOM      5  C12 <0> d          48.958  47.819  44.602  0.00  0.00     0.247 C 
ATOM      6  C13 <0> d          49.283  47.813  43.106  0.00  0.00     0.182 C 
ATOM      7  O2  <0> d          51.086  48.030  41.511  0.00  0.00    -0.349 OA
ATOM      8  C7  <0> d          50.119  48.704  40.703  0.00  0.00     0.291 C 
ATOM      9  C6  <0> d          50.781  49.892  40.001  0.00  0.00     0.238 C 
ATOM     10  C5  <0> d          51.884  49.376  39.071  0.00  0.00     0.040 C 
ATOM     11  C4  <0> d          51.276  48.379  38.080  0.00  0.00     0.036 C 
ATOM     12  C3  <0> d          50.595  47.248  38.858  0.00  0.00     0.154 C 
ATOM     13  O1  <0> d          49.602  47.800  39.725  0.00  0.00    -0.352 OA
ATOM     14  N3  <0> d          51.382  50.777  41.015  0.00  0.00    -0.070 N 
ATOM     15  H28 <0> d          51.368  50.321  41.926  0.00  0.00     0.274 HD
ATOM     16  H29 <0> d          52.342  50.998  40.759  0.00  0.00     0.274 HD
ATOM     17  H35 <0> d          50.840  51.647  41.067  0.00  0.00     0.274 HD
ATOM     18  C2  <0> d          49.934  46.280  37.875  0.00  0.00     0.208 C 
ATOM     19  C1  <0> d          50.340  46.648  36.446  0.00  0.00     0.042 C 
ATOM     20  N4  <0> d          48.471  46.365  38.030  0.00  0.00    -0.073 N 
ATOM     21  H30 <0> d          48.234  46.592  38.995  0.00  0.00     0.274 HD
ATOM     22  H31 <0> d          48.095  47.081  37.411  0.00  0.00     0.274 HD
ATOM     23  H36 <0> d          48.053  45.459  37.787  0.00  0.00     0.274 HD
ATOM     24  O3  <0> d          48.910  46.554  42.544  0.00  0.00    -0.391 OA
ATOM     25  H18 <0> d          48.413  46.624  41.717  0.00  0.00     0.210 HD
ATOM     26  N2  <0> d          51.152  45.623  43.028  0.00  0.00    -0.070 N 
ATOM     27  H26 <0> d          51.774  44.884  43.354  0.00  0.00     0.274 HD
ATOM     28  H27 <0> d          50.195  45.406  43.301  0.00  0.00     0.274 HD
ATOM     29  H34 <0> d          51.204  45.676  42.004  0.00  0.00     0.274 HD
ATOM     30  N1  <0> d          47.514  47.596  44.793  0.00  0.00    -0.070 N 
ATOM     31  C14 <0> d          47.115  47.974  46.161  0.00  0.00     0.267 C 
ATOM     32  H32 <0> d          47.301  46.602  44.640  0.00  0.00     0.277 HD
ATOM     33  H33 <0> d          46.990  48.165  44.117  0.00  0.00     0.277 HD
ATOM     34  O5  <0> d          51.964  45.876  45.747  0.00  0.00    -0.391 OA
ATOM     35  H25 <0> d          51.704  45.727  46.665  0.00  0.00     0.210 HD
ATOM     36  O4  <0> d          49.363  45.440  44.733  0.00  0.00    -0.386 OA
ATOM     37  C15 <0> d          48.628  44.599  45.624  0.00  0.00     0.202 C 
ENDMDL
MODEL 3
REMARK VINA RESULT:      -6.8      2.720      3.597
ATOM      1  C8  <0> d          49.765  48.398  44.513  0.00  0.00     0.188 C 
ATOM      2  C9  <0> d          49.563  47.363  45.622  0.00  0.00     0.246 C 
ATOM      3  C10 <0> d          48.951  48.043  46.848  0.00  0.00     0.182 C 
ATOM      4  C11 <0> d          47.604  48.659  46.471  0.00  0.00     0.184 C 
ATOM      5  C12 <0> d          47.806  49.694  45.362  0.00  0.00     0.247 C 
ATOM      6  C13 <0> d          48.418  49.013  44.136  0.00  0.00     0.182 C 
ATOM      7  O2  <0> d          50.337  47.762  43.367  0.00  0.00    -0.349 OA
ATOM      8  C7  <0> d          51.703  48.108  43.130  0.00  0.00     0.291 C 
ATOM      9  C6  <0> d          52.443  46.899  42.554  0.00  0.00     0.238 C 
ATOM     10  C5  <0> d          51.820  46.522  41.206  0.00  0.00     0.040 C 
ATOM     11  C4  <0> d          51.875  47.736  40.274  0.00  0.00     0.036 C 
ATOM     12  C3  <0> d          51.155  48.914  40.939  0.00  0.00     0.154 C 
ATOM     13  O1  <0> d          51.766  49.192  42.200  0.00  0.00    -0.352 OA
ATOM     14  N3  <0> d          52.304  45.762  43.482  0.00  0.00    -0.070 N 
ATOM     15  H28 <0> d          53.191  45.266  43.559  0.00  0.00     0.274 HD
ATOM     16  H29 <0> d          52.020  46.095  44.401  0.00  0.00     0.274 HD
ATOM     17  H35 <0> d          51.590  45.118  43.122  0.00  0.00     0.274 HD
ATOM     18  C2  <0> d          51.259  50.147  40.040  0.00  0.00     0.208 C 
ATOM     19  C1  <0> d          52.720  50.594  39.953  0.00  0.00     0.042 C 
ATOM     20  N4  <0> d          50.426  51.224  40.604  0.00  0.00    -0.073 N 
ATOM     21  H30 <0> d          49.491  51.192  40.199  0.00  0.00     0.274 HD
ATOM     22  H31 <0> d          50.360  51.121  41.616  0.00  0.00     0.274 HD
ATOM     23  H36 <0> d          50.855  52.131  40.387  0.00  0.00     0.274 HD
ATOM     24  O3  <0> d          47.538  47.987  43.674  0.00  0.00    -0.391 OA
ATOM     25  H18 <0> d          47.930  47.401  43.010  0.00  0.00     0.210 HD
ATOM     26  N2  <0> d          48.638  46.322  45.139  0.00  0.00    -0.070 N 
ATOM     27  H26 <0> d          48.275  46.576  44.221  0.00  0.00     0.274 HD
ATOM     28  H27 <0> d          49.120  45.427  45.077  0.00  0.00     0.274 HD
ATOM     29  H34 <0> d          47.854  46.235  45.796  0.00  0.00     0.274 HD
ATOM     30  N1  <0> d          46.502  50.279  45.002  0.00  0.00    -0.070 N 
ATOM     31  C14 <0> d          46.338  51.596  45.645  0.00  0.00     0.267 C 
ATOM     32  H32 <0> d          45.751  49.653  45.314  0.00  0.00     0.277 HD
ATOM     33  H33 <0> d          46.451  50.392  43.982  0.00  0.00     0.277 HD
ATOM     34  O5  <0> d          48.761  47.076  47.883  0.00  0.00    -0.391 OA
ATOM     35  H25 <0> d          48.889  47.424  48.775  0.00  0.00     0.210 HD
ATOM     36  O4  <0> d          46.723  47.632  46.008  0.00  0.00    -0.386 OA
ATOM     37  C15 <0> d          45.517  47.514  46.766  0.00  0.00     0.202 C 
ENDMDL
MODEL 4
REMARK VINA RESULT:      -6.7      1.972      2.471
ATOM      1  C8  <0> d          50.798  48.591  40.004  0.00  0.00     0.188 C 
ATOM      2  C9  <0> d          51.570  47.378  40.525  0.00  0.00     0.246 C 
ATOM      3  C10 <0> d          51.708  47.475  42.046  0.00  0.00     0.182 C 
ATOM      4  C11 <0> d          50.319  47.510  42.684  0.00  0.00     0.184 C 
ATOM      5  C12 <0> d          49.546  48.723  42.163  0.00  0.00     0.247 C 
ATOM      6  C13 <0> d          49.408  48.625  40.642  0.00  0.00     0.182 C 
ATOM      7  O2  <0> d          50.669  48.499  38.584  0.00  0.00    -0.349 OA
ATOM      8  C7  <0> d          51.717  49.148  37.861  0.00  0.00     0.291 C 
ATOM      9  C6  <0> d          51.955  48.415  36.539  0.00  0.00     0.238 C 
ATOM     10  C5  <0> d          50.685  48.493  35.685  0.00  0.00     0.040 C 
ATOM     11  C4  <0> d          50.314  49.965  35.476  0.00  0.00     0.036 C 
ATOM     12  C3  <0> d          50.139  50.638  36.840  0.00  0.00     0.154 C 
ATOM     13  O1  <0> d          51.346  50.502  37.594  0.00  0.00    -0.352 OA
ATOM     14  N3  <0> d          52.257  47.000  36.820  0.00  0.00    -0.070 N 
ATOM     15  H28 <0> d          52.078  46.795  37.802  0.00  0.00     0.274 HD
ATOM     16  H29 <0> d          51.681  46.397  36.236  0.00  0.00     0.274 HD
ATOM     17  H35 <0> d          53.247  46.819  36.615  0.00  0.00     0.274 HD
ATOM     18  C2  <0> d          49.828  52.122  36.640  0.00  0.00     0.208 C 
ATOM     19  C1  <0> d          51.068  52.953  36.978  0.00  0.00     0.042 C 
ATOM     20  N4  <0> d          48.704  52.499  37.515  0.00  0.00    -0.073 N 
ATOM     21  H30 <0> d          49.037  53.089  38.277  0.00  0.00     0.274 HD
ATOM     22  H31 <0> d          47.999  53.004  36.981  0.00  0.00     0.274 HD
ATOM     23  H36 <0> d          48.283  51.650  37.909  0.00  0.00     0.274 HD
ATOM     24  O3  <0> d          48.701  47.430  40.305  0.00  0.00    -0.391 OA
ATOM     25  H18 <0> d          47.997  47.561  39.654  0.00  0.00     0.210 HD
ATOM     26  N2  <0> d          50.819  46.155  40.190  0.00  0.00    -0.070 N 
ATOM     27  H26 <0> d          51.391  45.332  40.376  0.00  0.00     0.274 HD
ATOM     28  H27 <0> d          49.965  46.106  40.742  0.00  0.00     0.274 HD
ATOM     29  H34 <0> d          50.572  46.172  39.193  0.00  0.00     0.274 HD
ATOM     30  N1  <0> d          48.207  48.747  42.778  0.00  0.00    -0.070 N 
ATOM     31  C14 <0> d          48.294  49.215  44.174  0.00  0.00     0.267 C 
ATOM     32  H32 <0> d          47.810  47.799  42.763  0.00  0.00     0.277 HD
ATOM     33  H33 <0> d          47.600  49.381  42.246  0.00  0.00     0.277 HD
ATOM     34  O5  <0> d          52.428  46.341  42.532  0.00  0.00    -0.391 OA
ATOM     35  H25 <0> d          51.922  45.782  43.136  0.00  0.00     0.210 HD
ATOM     36  O4  <0> d          49.610  46.315  42.347  0.00  0.00    -0.386 OA
ATOM     37  C15 <0> d          49.234  45.523  43.475  0.00  0.00     0.202 C 
ENDMDL
MODEL 5
REMARK VINA RESULT:      -6.6      2.542      4.628
ATOM      1  C8  <0> d          49.671  49.754  39.832  0.00  0.00     0.188 C 
ATOM      2  C9  <0> d          49.151  50.309  41.160  0.00  0.00     0.246 C 
ATOM      3  C10 <0> d          48.794  49.150  42.093  0.00  0.00     0.182 C 
ATOM      4  C11 <0> d          50.038  48.298  42.346  0.00  0.00     0.184 C 
ATOM      5  C12 <0> d          50.558  47.742  41.019  0.00  0.00     0.247 C 
ATOM      6  C13 <0> d          50.915  48.902  40.086  0.00  0.00     0.182 C 
ATOM      7  O2  <0> d          50.004  50.838  38.961  0.00  0.00    -0.349 OA
ATOM      8  C7  <0> d          49.311  50.813  37.711  0.00  0.00     0.291 C 
ATOM      9  C6  <0> d          49.180  52.240  37.173  0.00  0.00     0.238 C 
ATOM     10  C5  <0> d          50.579  52.811  36.917  0.00  0.00     0.040 C 
ATOM     11  C4  <0> d          51.325  51.888  35.947  0.00  0.00     0.036 C 
ATOM     12  C3  <0> d          51.373  50.474  36.534  0.00  0.00     0.154 C 
ATOM     13  O1  <0> d          50.041  50.017  36.776  0.00  0.00    -0.352 OA
ATOM     14  N3  <0> d          48.498  53.074  38.178  0.00  0.00    -0.070 N 
ATOM     15  H28 <0> d          48.560  52.633  39.095  0.00  0.00     0.274 HD
ATOM     16  H29 <0> d          48.928  53.997  38.215  0.00  0.00     0.274 HD
ATOM     17  H35 <0> d          47.510  53.174  37.920  0.00  0.00     0.274 HD
ATOM     18  C2  <0> d          52.063  49.535  35.544  0.00  0.00     0.208 C 
ATOM     19  C1  <0> d          51.160  49.325  34.327  0.00  0.00     0.042 C 
ATOM     20  N4  <0> d          52.332  48.249  36.211  0.00  0.00    -0.073 N 
ATOM     21  H30 <0> d          53.320  48.180  36.453  0.00  0.00     0.274 HD
ATOM     22  H31 <0> d          51.770  48.169  37.057  0.00  0.00     0.274 HD
ATOM     23  H36 <0> d          52.089  47.481  35.574  0.00  0.00     0.274 HD
ATOM     24  O3  <0> d          51.927  49.707  40.694  0.00  0.00    -0.391 OA
ATOM     25  H18 <0> d          51.598  50.292  41.391  0.00  0.00     0.210 HD
ATOM     26  N2  <0> d          50.212  51.120  41.785  0.00  0.00    -0.070 N 
ATOM     27  H26 <0> d          51.126  50.814  41.454  0.00  0.00     0.274 HD
ATOM     28  H27 <0> d          50.080  52.104  41.557  0.00  0.00     0.274 HD
ATOM     29  H34 <0> d          50.170  51.004  42.805  0.00  0.00     0.274 HD
ATOM     30  N1  <0> d          51.759  46.927  41.271  0.00  0.00    -0.070 N 
ATOM     31  C14 <0> d          51.388  45.662  41.933  0.00  0.00     0.267 C 
ATOM     32  H32 <0> d          52.403  47.449  41.877  0.00  0.00     0.277 HD
ATOM     33  H33 <0> d          52.222  46.719  40.379  0.00  0.00     0.277 HD
ATOM     34  O5  <0> d          48.311  49.669  43.333  0.00  0.00    -0.391 OA
ATOM     35  H25 <0> d          48.188  49.000  44.019  0.00  0.00     0.210 HD
ATOM     36  O4  <0> d          51.052  49.103  42.954  0.00  0.00    -0.386 OA
ATOM     37  C15 <0> d          51.448  48.658  44.253  0.00  0.00     0.202 C 
ENDMDL
MODEL 6
REMARK VINA RESULT:      -6.5      2.775      3.925
ATOM      1  C8  <0> d          50.224  49.266  39.586  0.00  0.00     0.188 C 
ATOM      2  C9  <0> d          50.029  49.024  41.084  0.00  0.00     0.246 C 
ATOM      3  C10 <0> d          50.111  50.357  41.831  0.00  0.00     0.182 C 
ATOM      4  C11 <0> d          49.020  51.298  41.317  0.00  0.00     0.184 C 
ATOM      5  C12 <0> d          49.215  51.539  39.819  0.00  0.00     0.247 C 
ATOM      6  C13 <0> d          49.133  50.205  39.073  0.00  0.00     0.182 C 
ATOM      7  O2  <0> d          50.148  48.020  38.889  0.00  0.00    -0.349 OA
ATOM      8  C7  <0> d          51.370  47.629  38.260  0.00  0.00     0.291 C 
ATOM      9  C6  <0> d          51.201  46.242  37.635  0.00  0.00     0.238 C 
ATOM     10  C5  <0> d          50.121  46.307  36.550  0.00  0.00     0.040 C 
ATOM     11  C4  <0> d          50.514  47.368  35.517  0.00  0.00     0.036 C 
ATOM     12  C3  <0> d          50.709  48.712  36.225  0.00  0.00     0.154 C 
ATOM     13  O1  <0> d          51.704  48.573  37.241  0.00  0.00    -0.352 OA
ATOM     14  N3  <0> d          50.777  45.292  38.678  0.00  0.00    -0.070 N 
ATOM     15  H28 <0> d          49.767  45.156  38.636  0.00  0.00     0.274 HD
ATOM     16  H29 <0> d          51.246  44.398  38.547  0.00  0.00     0.274 HD
ATOM     17  H35 <0> d          51.026  45.669  39.600  0.00  0.00     0.274 HD
ATOM     18  C2  <0> d          51.161  49.762  35.208  0.00  0.00     0.208 C 
ATOM     19  C1  <0> d          50.388  51.062  35.441  0.00  0.00     0.042 C 
ATOM     20  N4  <0> d          50.910  49.253  33.848  0.00  0.00    -0.073 N 
ATOM     21  H30 <0> d          49.973  48.855  33.792  0.00  0.00     0.274 HD
ATOM     22  H31 <0> d          50.998  50.008  33.170  0.00  0.00     0.274 HD
ATOM     23  H36 <0> d          51.598  48.523  33.629  0.00  0.00     0.274 HD
ATOM     24  O3  <0> d          47.852  49.614  39.297  0.00  0.00    -0.391 OA
ATOM     25  H18 <0> d          47.273  50.136  39.870  0.00  0.00     0.210 HD
ATOM     26  N2  <0> d          48.697  48.434  41.302  0.00  0.00    -0.070 N 
ATOM     27  H26 <0> d          48.495  47.748  40.575  0.00  0.00     0.274 HD
ATOM     28  H27 <0> d          48.659  47.981  42.214  0.00  0.00     0.274 HD
ATOM     29  H34 <0> d          47.987  49.176  41.267  0.00  0.00     0.274 HD
ATOM     30  N1  <0> d          48.157  52.442  39.332  0.00  0.00    -0.070 N 
ATOM     31  C14 <0> d          48.608  53.150  38.119  0.00  0.00     0.267 C 
ATOM     32  H32 <0> d          47.933  53.129  40.062  0.00  0.00     0.277 HD
ATOM     33  H33 <0> d          47.318  51.893  39.110  0.00  0.00     0.277 HD
ATOM     34  O5  <0> d          49.927  50.132  43.230  0.00  0.00    -0.391 OA
ATOM     35  H25 <0> d          49.019  50.261  43.534  0.00  0.00     0.210 HD
ATOM     36  O4  <0> d          47.737  50.706  41.540  0.00  0.00    -0.386 OA
ATOM     37  C15 <0> d          46.916  51.426  42.462  0.00  0.00     0.202 C 
ENDMDL
MODEL 7
REMARK VINA RESULT:      -6.5      2.617      7.145
ATOM      1  C8  <0> d          48.322  49.293  42.378  0.00  0.00     0.188 C 
ATOM      2  C9  <0> d          47.745  50.380  41.469  0.00  0.00     0.246 C 
ATOM      3  C10 <0> d          48.857  50.954  40.589  0.00  0.00     0.182 C 
ATOM      4  C11 <0> d          49.458  49.837  39.734  0.00  0.00     0.184 C 
ATOM      5  C12 <0> d          50.036  48.750  40.642  0.00  0.00     0.247 C 
ATOM      6  C13 <0> d          48.922  48.177  41.522  0.00  0.00     0.182 C 
ATOM      7  O2  <0> d          47.282  48.757  43.199  0.00  0.00    -0.349 OA
ATOM      8  C7  <0> d          47.084  49.467  44.424  0.00  0.00     0.291 C 
ATOM      9  C6  <0> d          45.714  49.110  45.004  0.00  0.00     0.238 C 
ATOM     10  C5  <0> d          45.679  47.612  45.326  0.00  0.00     0.040 C 
ATOM     11  C4  <0> d          46.824  47.282  46.289  0.00  0.00     0.036 C 
ATOM     12  C3  <0> d          48.152  47.710  45.657  0.00  0.00     0.154 C 
ATOM     13  O1  <0> d          48.105  49.106  45.355  0.00  0.00    -0.352 OA
ATOM     14  N3  <0> d          44.673  49.410  44.005  0.00  0.00    -0.070 N 
ATOM     15  H28 <0> d          45.106  49.673  43.121  0.00  0.00     0.274 HD
ATOM     16  H29 <0> d          44.080  48.594  43.864  0.00  0.00     0.274 HD
ATOM     17  H35 <0> d          44.097  50.190  44.342  0.00  0.00     0.274 HD
ATOM     18  C2  <0> d          49.294  47.439  46.638  0.00  0.00     0.208 C 
ATOM     19  C1  <0> d          49.757  45.988  46.491  0.00  0.00     0.042 C 
ATOM     20  N4  <0> d          48.817  47.688  48.010  0.00  0.00    -0.073 N 
ATOM     21  H30 <0> d          48.039  47.068  48.228  0.00  0.00     0.274 HD
ATOM     22  H31 <0> d          49.572  47.531  48.676  0.00  0.00     0.274 HD
ATOM     23  H36 <0> d          48.501  48.662  48.086  0.00  0.00     0.274 HD
ATOM     24  O3  <0> d          47.905  47.613  40.693  0.00  0.00    -0.391 OA
ATOM     25  H18 <0> d          47.014  47.675  41.066  0.00  0.00     0.210 HD
ATOM     26  N2  <0> d          46.712  49.780  40.606  0.00  0.00    -0.070 N 
ATOM     27  H26 <0> d          45.986  49.349  41.177  0.00  0.00     0.274 HD
ATOM     28  H27 <0> d          46.295  50.494  40.011  0.00  0.00     0.274 HD
ATOM     29  H34 <0> d          47.142  49.061  40.013  0.00  0.00     0.274 HD
ATOM     30  N1  <0> d          50.608  47.677  39.810  0.00  0.00    -0.070 N 
ATOM     31  C14 <0> d          51.446  46.784  40.633  0.00  0.00     0.267 C 
ATOM     32  H32 <0> d          51.183  48.093  39.068  0.00  0.00     0.277 HD
ATOM     33  H33 <0> d          49.847  47.132  39.388  0.00  0.00     0.277 HD
ATOM     34  O5  <0> d          48.317  51.968  39.740  0.00  0.00    -0.391 OA
ATOM     35  H25 <0> d          48.943  52.310  39.088  0.00  0.00     0.210 HD
ATOM     36  O4  <0> d          48.440  49.272  38.904  0.00  0.00    -0.386 OA
ATOM     37  C15 <0> d          48.712  49.363  37.505  0.00  0.00     0.202 C 
ENDMDL
MODEL 8
REMARK VINA RESULT:      -6.5      2.182      6.581
ATOM      1  C8  <0> d          50.190  47.437  40.820  0.00  0.00     0.188 C 
ATOM      2  C9  <0> d          51.082  46.540  39.959  0.00  0.00     0.246 C 
ATOM      3  C10 <0> d          50.513  46.468  38.540  0.00  0.00     0.182 C 
ATOM      4  C11 <0> d          50.466  47.873  37.937  0.00  0.00     0.184 C 
ATOM      5  C12 <0> d          49.574  48.769  38.798  0.00  0.00     0.247 C 
ATOM      6  C13 <0> d          50.143  48.842  40.217  0.00  0.00     0.182 C 
ATOM      7  O2  <0> d          50.722  47.505  42.145  0.00  0.00    -0.349 OA
ATOM      8  C7  <0> d          51.182  46.250  42.652  0.00  0.00     0.291 C 
ATOM      9  C6  <0> d          52.255  46.493  43.717  0.00  0.00     0.238 C 
ATOM     10  C5  <0> d          51.637  47.267  44.886  0.00  0.00     0.040 C 
ATOM     11  C4  <0> d          50.443  46.477  45.431  0.00  0.00     0.036 C 
ATOM     12  C3  <0> d          49.439  46.236  44.300  0.00  0.00     0.154 C 
ATOM     13  O1  <0> d          50.087  45.539  43.233  0.00  0.00    -0.352 OA
ATOM     14  N3  <0> d          53.342  47.296  43.131  0.00  0.00    -0.070 N 
ATOM     15  H28 <0> d          54.230  46.807  43.233  0.00  0.00     0.274 HD
ATOM     16  H29 <0> d          53.159  47.464  42.143  0.00  0.00     0.274 HD
ATOM     17  H35 <0> d          53.398  48.197  43.619  0.00  0.00     0.274 HD
ATOM     18  C2  <0> d          48.273  45.396  44.823  0.00  0.00     0.208 C 
ATOM     19  C1  <0> d          47.380  46.263  45.712  0.00  0.00     0.042 C 
ATOM     20  N4  <0> d          48.808  44.257  45.589  0.00  0.00    -0.073 N 
ATOM     21  H30 <0> d          48.210  43.440  45.465  0.00  0.00     0.274 HD
ATOM     22  H31 <0> d          49.752  44.036  45.275  0.00  0.00     0.274 HD
ATOM     23  H36 <0> d          48.837  44.503  46.586  0.00  0.00     0.274 HD
ATOM     24  O3  <0> d          51.464  49.385  40.172  0.00  0.00    -0.391 OA
ATOM     25  H18 <0> d          52.113  48.884  40.686  0.00  0.00     0.210 HD
ATOM     26  N2  <0> d          52.434  47.124  39.905  0.00  0.00    -0.070 N 
ATOM     27  H26 <0> d          52.680  47.519  40.811  0.00  0.00     0.274 HD
ATOM     28  H27 <0> d          53.114  46.409  39.652  0.00  0.00     0.274 HD
ATOM     29  H34 <0> d          52.454  47.869  39.198  0.00  0.00     0.274 HD
ATOM     30  N1  <0> d          49.538  50.122  38.213  0.00  0.00    -0.070 N 
ATOM     31  C14 <0> d          48.931  50.081  36.870  0.00  0.00     0.267 C 
ATOM     32  H32 <0> d          50.495  50.487  38.141  0.00  0.00     0.277 HD
ATOM     33  H33 <0> d          48.982  50.738  38.817  0.00  0.00     0.277 HD
ATOM     34  O5  <0> d          51.347  45.631  37.736  0.00  0.00    -0.391 OA
ATOM     35  H25 <0> d          51.769  46.089  36.997  0.00  0.00     0.210 HD
ATOM     36  O4  <0> d          51.787  48.417  37.893  0.00  0.00    -0.386 OA
ATOM     37  C15 <0> d          52.273  48.660  36.571  0.00  0.00     0.202 C 
ENDMDL
MODEL 9
REMARK VINA RESULT:      -6.4      2.369      6.532
ATOM      1  C8  <0> d          50.185  47.388  42.659  0.00  0.00     0.188 C 
ATOM      2  C9  <0> d          51.232  48.473  42.402  0.00  0.00     0.246 C 
ATOM      3  C10 <0> d          51.816  48.296  40.998  0.00  0.00     0.182 C 
ATOM      4  C11 <0> d          50.697  48.409  39.962  0.00  0.00     0.184 C 
ATOM      5  C12 <0> d          49.649  47.324  40.220  0.00  0.00     0.247 C 
ATOM      6  C13 <0> d          49.066  47.502  41.624  0.00  0.00     0.182 C 
ATOM      7  O2  <0> d          49.640  47.555  43.971  0.00  0.00    -0.349 OA
ATOM      8  C7  <0> d          49.019  46.379  44.496  0.00  0.00     0.291 C 
ATOM      9  C6  <0> d          49.603  46.068  45.876  0.00  0.00     0.238 C 
ATOM     10  C5  <0> d          49.285  47.226  46.829  0.00  0.00     0.040 C 
ATOM     11  C4  <0> d          47.769  47.436  46.872  0.00  0.00     0.036 C 
ATOM     12  C3  <0> d          47.256  47.695  45.452  0.00  0.00     0.154 C 
ATOM     13  O1  <0> d          47.611  46.594  44.612  0.00  0.00    -0.352 OA
ATOM     14  N3  <0> d          51.065  45.929  45.761  0.00  0.00    -0.070 N 
ATOM     15  H28 <0> d          51.303  45.477  44.878  0.00  0.00     0.274 HD
ATOM     16  H29 <0> d          51.507  46.845  45.805  0.00  0.00     0.274 HD
ATOM     17  H35 <0> d          51.411  45.351  46.536  0.00  0.00     0.274 HD
ATOM     18  C2  <0> d          45.734  47.845  45.479  0.00  0.00     0.208 C 
ATOM     19  C1  <0> d          45.370  49.331  45.511  0.00  0.00     0.042 C 
ATOM     20  N4  <0> d          45.206  47.162  46.673  0.00  0.00    -0.073 N 
ATOM     21  H30 <0> d          45.654  47.528  47.512  0.00  0.00     0.274 HD
ATOM     22  H31 <0> d          44.199  47.302  46.739  0.00  0.00     0.274 HD
ATOM     23  H36 <0> d          45.400  46.156  46.600  0.00  0.00     0.274 HD
ATOM     24  O3  <0> d          48.453  48.789  41.724  0.00  0.00    -0.391 OA
ATOM     25  H18 <0> d          48.598  49.228  42.574  0.00  0.00     0.210 HD
ATOM     26  N2  <0> d          50.583  49.793  42.488  0.00  0.00    -0.070 N 
ATOM     27  H26 <0> d          51.032  50.357  43.209  0.00  0.00     0.274 HD
ATOM     28  H27 <0> d          50.647  50.274  41.593  0.00  0.00     0.274 HD
ATOM     29  H34 <0> d          49.593  49.668  42.730  0.00  0.00     0.274 HD
ATOM     30  N1  <0> d          48.572  47.443  39.221  0.00  0.00    -0.070 N 
ATOM     31  C14 <0> d          49.014  46.894  37.925  0.00  0.00     0.267 C 
ATOM     32  H32 <0> d          48.327  48.434  39.103  0.00  0.00     0.277 HD
ATOM     33  H33 <0> d          47.748  46.923  39.545  0.00  0.00     0.277 HD
ATOM     34  O5  <0> d          52.793  49.310  40.758  0.00  0.00    -0.391 OA
ATOM     35  H25 <0> d          53.668  49.106  41.113  0.00  0.00     0.210 HD
ATOM     36  O4  <0> d          50.083  49.696  40.063  0.00  0.00    -0.386 OA
ATOM     37  C15 <0> d          50.208  50.495  38.885  0.00  0.00     0.202 C 
ENDMDL
MODEL 10
REMARK VINA RESULT:      -6.3      2.345      4.155
ATOM      1  C8  <0> d          49.490  49.681  40.688  0.00  0.00     0.188 C 
ATOM      2  C9  <0> d          49.036  50.999  41.319  0.00  0.00     0.246 C 
ATOM      3  C10 <0> d          47.950  50.719  42.360  0.00  0.00     0.182 C 
ATOM      4  C11 <0> d          48.508  49.798  43.445  0.00  0.00     0.184 C 
ATOM      5  C12 <0> d          48.962  48.480  42.815  0.00  0.00     0.247 C 
ATOM      6  C13 <0> d          50.049  48.760  41.774  0.00  0.00     0.182 C 
ATOM      7  O2  <0> d          50.505  49.942  39.716  0.00  0.00    -0.349 OA
ATOM      8  C7  <0> d          50.005  50.136  38.391  0.00  0.00     0.291 C 
ATOM      9  C6  <0> d          51.039  50.902  37.563  0.00  0.00     0.238 C 
ATOM     10  C5  <0> d          52.319  50.066  37.458  0.00  0.00     0.040 C 
ATOM     11  C4  <0> d          51.977  48.704  36.847  0.00  0.00     0.036 C 
ATOM     12  C3  <0> d          50.906  48.022  37.704  0.00  0.00     0.154 C 
ATOM     13  O1  <0> d          49.756  48.866  37.785  0.00  0.00    -0.352 OA
ATOM     14  N3  <0> d          51.350  52.174  38.238  0.00  0.00    -0.070 N 
ATOM     15  H28 <0> d          51.083  52.122  39.220  0.00  0.00     0.274 HD
ATOM     16  H29 <0> d          52.347  52.372  38.167  0.00  0.00     0.274 HD
ATOM     17  H35 <0> d          50.825  52.933  37.788  0.00  0.00     0.274 HD
ATOM     18  C2  <0> d          50.516  46.688  37.067  0.00  0.00     0.208 C 
ATOM     19  C1  <0> d          49.990  46.934  35.651  0.00  0.00     0.042 C 
ATOM     20  N4  <0> d          49.480  46.045  37.895  0.00  0.00    -0.073 N 
ATOM     21  H30 <0> d          48.656  45.844  37.330  0.00  0.00     0.274 HD
ATOM     22  H31 <0> d          49.838  45.177  38.290  0.00  0.00     0.274 HD
ATOM     23  H36 <0> d          49.218  46.678  38.659  0.00  0.00     0.274 HD
ATOM     24  O3  <0> d          51.162  49.392  42.407  0.00  0.00    -0.391 OA
ATOM     25  H18 <0> d          51.637  48.822  43.029  0.00  0.00     0.210 HD
ATOM     26  N2  <0> d          50.189  51.629  41.986  0.00  0.00    -0.070 N 
ATOM     27  H26 <0> d          50.875  50.920  42.242  0.00  0.00     0.274 HD
ATOM     28  H27 <0> d          50.622  52.312  41.366  0.00  0.00     0.274 HD
ATOM     29  H34 <0> d          49.868  52.107  42.837  0.00  0.00     0.274 HD
ATOM     30  N1  <0> d          49.503  47.600  43.866  0.00  0.00    -0.070 N 
ATOM     31  C14 <0> d          49.294  46.185  43.506  0.00  0.00     0.267 C 
ATOM     32  H32 <0> d          49.025  47.798  44.754  0.00  0.00     0.277 HD
ATOM     33  H33 <0> d          50.509  47.777  43.973  0.00  0.00     0.277 HD
ATOM     34  O5  <0> d          47.528  51.950  42.949  0.00  0.00    -0.391 OA
ATOM     35  H25 <0> d          48.253  52.542  43.189  0.00  0.00     0.210 HD
ATOM     36  O4  <0> d          49.623  50.430  44.079  0.00  0.00    -0.386 OA
ATOM     37  C15 <0> d          49.442  50.665  45.477  0.00  0.00     0.202 C 
ENDMDL
MODEL 1
REMARK VINA RESULT:      -7.0      0.000      0.000
ATOM      1  C8  <0> d          49.823  48.263  44.541  0.00  0.00     0.188 C 
ATOM      2  C9  <0> d          49.595  47.238  45.653  0.00  0.00     0.246 C 
ATOM      3  C10 <0> d          49.000  47.939  46.878  0.00  0.00     0.182 C 
ATOM      4  C11 <0> d          47.668  48.585  46.497  0.00  0.00     0.184 C 
ATOM      5  C12 <0> d          47.896  49.610  45.385  0.00  0.00     0.247 C 
ATOM      6  C13 <0> d          48.490  48.910  44.161  0.00  0.00     0.182 C 
ATOM      7  O2  <0> d          50.378  47.608  43.397  0.00  0.00    -0.349 OA
ATOM      8  C7  <0> d          51.748  47.933  43.149  0.00  0.00     0.291 C 
ATOM      9  C6  <0> d          52.421  46.773  42.409  0.00  0.00     0.238 C 
ATOM     10  C5  <0> d          51.737  46.578  41.052  0.00  0.00     0.040 C 
ATOM     11  C4  <0> d          51.806  47.889  40.264  0.00  0.00     0.036 C 
ATOM     12  C3  <0> d          51.156  49.006  41.087  0.00  0.00     0.154 C 
ATOM     13  O1  <0> d          51.820  49.114  42.347  0.00  0.00    -0.352 OA
ATOM     14  N3  <0> d          52.270  45.543  43.205  0.00  0.00    -0.070 N 
ATOM     15  H28 <0> d          51.461  45.014  42.880  0.00  0.00     0.274 HD
ATOM     16  H29 <0> d          53.107  44.968  43.121  0.00  0.00     0.274 HD
ATOM     17  H35 <0> d          52.132  45.793  44.191  0.00  0.00     0.274 HD
ATOM     18  C2  <0> d          51.275  50.331  40.332  0.00  0.00     0.208 C 
ATOM     19  C1  <0> d          52.740  50.576  39.962  0.00  0.00     0.042 C 
ATOM     20  N4  <0> d          50.772  51.419  41.188  0.00  0.00    -0.073 N 
ATOM     21  H30 <0> d          49.764  51.514  41.076  0.00  0.00     0.274 HD
ATOM     22  H31 <0> d          50.988  51.224  42.164  0.00  0.00     0.274 HD
ATOM     23  H36 <0> d          51.223  52.299  40.915  0.00  0.00     0.274 HD
ATOM     24  O3  <0> d          47.585  47.903  43.703  0.00  0.00    -0.391 OA
ATOM     25  H18 <0> d          47.950  47.330  43.015  0.00  0.00     0.210 HD
ATOM     26  N2  <0> d          48.645  46.218  45.175  0.00  0.00    -0.070 N 
ATOM     27  H26 <0> d          48.706  45.384  45.757  0.00  0.00     0.274 HD
ATOM     28  H27 <0> d          47.695  46.583  45.206  0.00  0.00     0.274 HD
ATOM     29  H34 <0> d          48.876  45.969  44.206  0.00  0.00     0.274 HD
ATOM     30  N1  <0> d          46.607  50.227  45.021  0.00  0.00    -0.070 N 
ATOM     31  C14 <0> d          46.496  51.571  45.619  0.00  0.00     0.267 C 
ATOM     32  H32 <0> d          45.840  49.638  45.368  0.00  0.00     0.277 HD
ATOM     33  H33 <0> d          46.544  50.304  44.000  0.00  0.00     0.277 HD
ATOM     34  O5  <0> d          48.787  46.981  47.917  0.00  0.00    -0.391 OA
ATOM     35  H25 <0> d          49.001  46.073  47.666  0.00  0.00     0.210 HD
ATOM     36  O4  <0> d          46.763  47.578  46.040  0.00  0.00    -0.386 OA
ATOM     37  C15 <0> d          45.525  47.540  46.753  0.00  0.00     0.202 C 
ENDMDL
MODEL 2
REMARK VINA RESULT:      -7.0      2.769      3.597
ATOM      1  C8  <0> d          50.445  47.760  41.615  0.00  0.00     0.188 C 
ATOM      2  C9  <0> d          51.022  46.615  42.449  0.00  0.00     0.246 C 
ATOM      3  C10 <0> d          51.565  47.169  43.769  0.00  0.00     0.182 C 
ATOM      4  C11 <0> d          50.432  47.843  44.543  0.00  0.00     0.184 C 
ATOM      5  C12 <0> d          49.855  48.988  43.709  0.00  0.00     0.247 C 
ATOM      6  C13 <0> d          49.312  48.436  42.390  0.00  0.00     0.182 C 
ATOM      7  O2  <0> d          49.937  47.242  40.383  0.00  0.00    -0.349 OA
ATOM      8  C7  <0> d          50.832  47.390  39.278  0.00  0.00     0.291 C 
ATOM      9  C6  <0> d          50.721  46.167  38.364  0.00  0.00     0.238 C 
ATOM     10  C5  <0> d          49.298  46.086  37.802  0.00  0.00     0.040 C 
ATOM     11  C4  <0> d          48.976  47.391  37.068  0.00  0.00     0.036 C 
ATOM     12  C3  <0> d          49.154  48.568  38.032  0.00  0.00     0.154 C 
ATOM     13  O1  <0> d          50.489  48.566  38.541  0.00  0.00    -0.352 OA
ATOM     14  N3  <0> d          50.996  44.953  39.152  0.00  0.00    -0.070 N 
ATOM     15  H28 <0> d          51.826  44.484  38.793  0.00  0.00     0.274 HD
ATOM     16  H29 <0> d          51.140  45.196  40.130  0.00  0.00     0.274 HD
ATOM     17  H35 <0> d          50.194  44.315  39.080  0.00  0.00     0.274 HD
ATOM     18  C2  <0> d          48.893  49.879  37.289  0.00  0.00     0.208 C 
ATOM     19  C1  <0> d          50.007  50.118  36.269  0.00  0.00     0.042 C 
ATOM     20  N4  <0> d          48.844  50.983  38.264  0.00  0.00    -0.073 N 
ATOM     21  H30 <0> d          47.876  51.230  38.464  0.00  0.00     0.274 HD
ATOM     22  H31 <0> d          49.309  50.707  39.128  0.00  0.00     0.274 HD
ATOM     23  H36 <0> d          49.324  51.801  37.872  0.00  0.00     0.274 HD
ATOM     24  O3  <0> d          48.285  47.480  42.662  0.00  0.00    -0.391 OA
ATOM     25  H18 <0> d          47.622  47.784  43.297  0.00  0.00     0.210 HD
ATOM     26  N2  <0> d          49.948  45.647  42.740  0.00  0.00    -0.070 N 
ATOM     27  H26 <0> d          49.502  45.876  43.626  0.00  0.00     0.274 HD
ATOM     28  H27 <0> d          49.253  45.664  41.996  0.00  0.00     0.274 HD
ATOM     29  H34 <0> d          50.352  44.705  42.800  0.00  0.00     0.274 HD
ATOM     30  N1  <0> d          48.761  49.632  44.460  0.00  0.00    -0.070 N 
ATOM     31  C14 <0> d          49.305  50.420  45.582  0.00  0.00     0.267 C 
ATOM     32  H32 <0> d          48.131  48.909  44.828  0.00  0.00     0.277 HD
ATOM     33  H33 <0> d          48.238  50.254  43.832  0.00  0.00     0.277 HD
ATOM     34  O5  <0> d          52.103  46.098  44.548  0.00  0.00    -0.391 OA
ATOM     35  H25 <0> d          52.101  46.264  45.500  0.00  0.00     0.210 HD
ATOM     36  O4  <0> d          49.404  46.887  44.815  0.00  0.00    -0.386 OA
ATOM     37  C15 <0> d          49.209  46.622  46.205  0.00  0.00     0.202 C 
ENDMDL
MODEL 3
REMARK VINA RESULT:      -6.9      2.479      3.664
ATOM      1  C8  <0> d          50.802  48.051  42.916  0.00  0.00     0.188 C 
ATOM      2  C9  <0> d          51.572  46.923  43.604  0.00  0.00     0.246 C 
ATOM      3  C10 <0> d          51.241  46.916  45.099  0.00  0.00     0.182 C 
ATOM      4  C11 <0> d          49.739  46.698  45.286  0.00  0.00     0.184 C 
ATOM      5  C12 <0> d          48.969  47.826  44.598  0.00  0.00     0.247 C 
ATOM      6  C13 <0> d          49.300  47.833  43.104  0.00  0.00     0.182 C 
ATOM      7  O2  <0> d          51.111  48.056  41.520  0.00  0.00    -0.349 OA
ATOM      8  C7  <0> d          50.136  48.718  40.711  0.00  0.00     0.291 C 
ATOM      9  C6  <0> d          50.792  49.894  39.983  0.00  0.00     0.238 C 
ATOM     10  C5  <0> d          51.885  49.362  39.050  0.00  0.00     0.040 C 
ATOM     11  C4  <0> d          51.267  48.350  38.081  0.00  0.00     0.036 C 
ATOM     12  C3  <0> d          50.593  47.233  38.884  0.00  0.00     0.154 C 
ATOM     13  O1  <0> d          49.609  47.799  39.751  0.00  0.00    -0.352 OA
ATOM     14  N3  <0> d          51.404  50.794  40.976  0.00  0.00    -0.070 N 
ATOM     15  H28 <0> d          52.402  50.603  41.052  0.00  0.00     0.274 HD
ATOM     16  H29 <0> d          51.264  51.765  40.701  0.00  0.00     0.274 HD
ATOM     17  H35 <0> d          50.963  50.638  41.890  0.00  0.00     0.274 HD
ATOM     18  C2  <0> d          49.921  46.250  37.923  0.00  0.00     0.208 C 
ATOM     19  C1  <0> d          50.351  46.565  36.489  0.00  0.00     0.042 C 
ATOM     20  N4  <0> d          48.459  46.368  38.059  0.00  0.00    -0.073 N 
ATOM     21  H30 <0> d          48.071  46.857  37.254  0.00  0.00     0.274 HD
ATOM     22  H31 <0> d          48.038  45.443  38.129  0.00  0.00     0.274 HD
ATOM     23  H36 <0> d          48.241  46.900  38.910  0.00  0.00     0.274 HD
ATOM     24  O3  <0> d          48.925  46.579  42.529  0.00  0.00    -0.391 OA
ATOM     25  H18 <0> d          48.709  45.897  43.179  0.00  0.00     0.210 HD
ATOM     26  N2  <0> d          51.161  45.635  43.016  0.00  0.00    -0.070 N 
ATOM     27  H26 <0> d          50.782  45.783  42.082  0.00  0.00     0.274 HD
ATOM     28  H27 <0> d          51.960  45.005  42.962  0.00  0.00     0.274 HD
ATOM     29  H34 <0> d          50.438  45.209  43.608  0.00  0.00     0.274 HD
ATOM     30  N1  <0> d          47.522  47.607  44.780  0.00  0.00    -0.070 N 
ATOM     31  C14 <0> d          46.781  48.862  44.551  0.00  0.00     0.267 C 
ATOM     32  H32 <0> d          47.347  47.281  45.739  0.00  0.00     0.277 HD
ATOM     33  H33 <0> d          47.199  46.897  44.113  0.00  0.00     0.277 HD
ATOM     34  O5  <0> d          51.960  45.862  45.741  0.00  0.00    -0.391 OA
ATOM     35  H25 <0> d          51.448  45.383  46.406  0.00  0.00     0.210 HD
ATOM     36  O4  <0> d          49.364  45.444  44.711  0.00  0.00    -0.386 OA
ATOM     37  C15 <0> d          48.638  44.591  45.597  0.00  0.00     0.202 C 
ENDMDL
MODEL 4
REMARK VINA RESULT:      -6.7      2.377      6.583
ATOM      1  C8  <0> d          49.900  47.268  44.048  0.00  0.00     0.188 C 
ATOM      2  C9  <0> d          51.317  47.818  44.219  0.00  0.00     0.246 C 
ATOM      3  C10 <0> d          52.247  47.157  43.199  0.00  0.00     0.182 C 
ATOM      4  C11 <0> d          51.750  47.459  41.785  0.00  0.00     0.184 C 
ATOM      5  C12 <0> d          50.333  46.909  41.614  0.00  0.00     0.247 C 
ATOM      6  C13 <0> d          49.402  47.569  42.633  0.00  0.00     0.182 C 
ATOM      7  O2  <0> d          49.031  47.887  45.000  0.00  0.00    -0.349 OA
ATOM      8  C7  <0> d          49.091  47.305  46.305  0.00  0.00     0.291 C 
ATOM      9  C6  <0> d          48.125  48.042  47.237  0.00  0.00     0.238 C 
ATOM     10  C5  <0> d          46.694  47.871  46.716  0.00  0.00     0.040 C 
ATOM     11  C4  <0> d          46.376  46.376  46.614  0.00  0.00     0.036 C 
ATOM     12  C3  <0> d          47.409  45.703  45.706  0.00  0.00     0.154 C 
ATOM     13  O1  <0> d          48.719  45.927  46.230  0.00  0.00    -0.352 OA
ATOM     14  N3  <0> d          48.464  49.476  47.244  0.00  0.00    -0.070 N 
ATOM     15  H28 <0> d          48.961  49.721  46.388  0.00  0.00     0.274 HD
ATOM     16  H29 <0> d          47.616  50.035  47.316  0.00  0.00     0.274 HD
ATOM     17  H35 <0> d          49.067  49.676  48.050  0.00  0.00     0.274 HD
ATOM     18  C2  <0> d          47.133  44.199  45.647  0.00  0.00     0.208 C 
ATOM     19  C1  <0> d          47.537  43.661  44.273  0.00  0.00     0.042 C 
ATOM     20  N4  <0> d          45.699  43.964  45.889  0.00  0.00    -0.073 N 
ATOM     21  H30 <0> d          45.479  44.125  46.871  0.00  0.00     0.274 HD
ATOM     22  H31 <0> d          45.139  44.587  45.309  0.00  0.00     0.274 HD
ATOM     23  H36 <0> d          45.472  42.992  45.651  0.00  0.00     0.274 HD
ATOM     24  O3  <0> d          49.393  48.983  42.422  0.00  0.00    -0.391 OA
ATOM     25  H18 <0> d          50.178  49.436  42.759  0.00  0.00     0.210 HD
ATOM     26  N2  <0> d          51.297  49.273  43.979  0.00  0.00    -0.070 N 
ATOM     27  H26 <0> d          50.429  49.673  44.331  0.00  0.00     0.274 HD
ATOM     28  H27 <0> d          52.087  49.714  44.446  0.00  0.00     0.274 HD
ATOM     29  H34 <0> d          51.363  49.449  42.969  0.00  0.00     0.274 HD
ATOM     30  N1  <0> d          49.859  47.206  40.249  0.00  0.00    -0.070 N 
ATOM     31  C14 <0> d          50.614  46.413  39.261  0.00  0.00     0.267 C 
ATOM     32  H32 <0> d          49.993  48.206  40.055  0.00  0.00     0.277 HD
ATOM     33  H33 <0> d          48.861  46.975  40.179  0.00  0.00     0.277 HD
ATOM     34  O5  <0> d          53.571  47.672  43.359  0.00  0.00    -0.391 OA
ATOM     35  H25 <0> d          53.782  47.942  44.262  0.00  0.00     0.210 HD
ATOM     36  O4  <0> d          51.741  48.873  41.574  0.00  0.00    -0.386 OA
ATOM     37  C15 <0> d          52.476  49.294  40.424  0.00  0.00     0.202 C 
ENDMDL
MODEL 5
REMARK VINA RESULT:      -6.7      3.644      6.054
ATOM      1  C8  <0> d          49.696  49.954  39.825  0.00  0.00     0.188 C 
ATOM      2  C9  <0> d          48.250  50.114  40.296  0.00  0.00     0.246 C 
ATOM      3  C10 <0> d          47.916  49.011  41.304  0.00  0.00     0.182 C 
ATOM      4  C11 <0> d          48.859  49.115  42.503  0.00  0.00     0.184 C 
ATOM      5  C12 <0> d          50.305  48.954  42.032  0.00  0.00     0.247 C 
ATOM      6  C13 <0> d          50.639  50.057  41.024  0.00  0.00     0.182 C 
ATOM      7  O2  <0> d          50.007  50.985  38.884  0.00  0.00    -0.349 OA
ATOM      8  C7  <0> d          49.297  50.877  37.648  0.00  0.00     0.291 C 
ATOM      9  C6  <0> d          49.167  52.264  37.012  0.00  0.00     0.238 C 
ATOM     10  C5  <0> d          50.565  52.808  36.700  0.00  0.00     0.040 C 
ATOM     11  C4  <0> d          51.294  51.816  35.787  0.00  0.00     0.036 C 
ATOM     12  C3  <0> d          51.342  50.446  36.471  0.00  0.00     0.154 C 
ATOM     13  O1  <0> d          50.012  50.014  36.761  0.00  0.00    -0.352 OA
ATOM     14  N3  <0> d          48.503  53.169  37.965  0.00  0.00    -0.070 N 
ATOM     15  H28 <0> d          47.610  52.774  38.258  0.00  0.00     0.274 HD
ATOM     16  H29 <0> d          49.095  53.312  38.782  0.00  0.00     0.274 HD
ATOM     17  H35 <0> d          48.335  54.074  37.511  0.00  0.00     0.274 HD
ATOM     18  C2  <0> d          52.016  49.436  35.540  0.00  0.00     0.208 C 
ATOM     19  C1  <0> d          51.102  49.154  34.346  0.00  0.00     0.042 C 
ATOM     20  N4  <0> d          52.281  48.195  36.289  0.00  0.00    -0.073 N 
ATOM     21  H30 <0> d          53.263  48.150  36.557  0.00  0.00     0.274 HD
ATOM     22  H31 <0> d          51.700  48.159  37.124  0.00  0.00     0.274 HD
ATOM     23  H36 <0> d          52.060  47.388  35.693  0.00  0.00     0.274 HD
ATOM     24  O3  <0> d          50.480  51.333  41.647  0.00  0.00    -0.391 OA
ATOM     25  H18 <0> d          49.567  51.652  41.662  0.00  0.00     0.210 HD
ATOM     26  N2  <0> d          48.104  51.425  40.954  0.00  0.00    -0.070 N 
ATOM     27  H26 <0> d          48.359  51.353  41.937  0.00  0.00     0.274 HD
ATOM     28  H27 <0> d          48.702  52.113  40.498  0.00  0.00     0.274 HD
ATOM     29  H34 <0> d          47.127  51.732  40.882  0.00  0.00     0.274 HD
ATOM     30  N1  <0> d          51.208  49.058  43.192  0.00  0.00    -0.070 N 
ATOM     31  C14 <0> d          52.077  47.869  43.273  0.00  0.00     0.267 C 
ATOM     32  H32 <0> d          50.649  49.128  44.052  0.00  0.00     0.277 HD
ATOM     33  H33 <0> d          51.791  49.897  43.095  0.00  0.00     0.277 HD
ATOM     34  O5  <0> d          46.565  49.161  41.744  0.00  0.00    -0.391 OA
ATOM     35  H25 <0> d          45.944  48.550  41.327  0.00  0.00     0.210 HD
ATOM     36  O4  <0> d          48.700  50.391  43.126  0.00  0.00    -0.386 OA
ATOM     37  C15 <0> d          48.225  50.327  44.472  0.00  0.00     0.202 C 
ENDMDL
MODEL 6
REMARK VINA RESULT:      -6.5      1.913      6.271
ATOM      1  C8  <0> d          49.700  47.668  42.633  0.00  0.00     0.188 C 
ATOM      2  C9  <0> d          51.141  47.320  42.259  0.00  0.00     0.246 C 
ATOM      3  C10 <0> d          51.306  47.397  40.739  0.00  0.00     0.182 C 
ATOM      4  C11 <0> d          50.983  48.813  40.263  0.00  0.00     0.184 C 
ATOM      5  C12 <0> d          49.541  49.162  40.637  0.00  0.00     0.247 C 
ATOM      6  C13 <0> d          49.376  49.085  42.156  0.00  0.00     0.182 C 
ATOM      7  O2  <0> d          49.546  47.597  44.053  0.00  0.00    -0.349 OA
ATOM      8  C7  <0> d          48.917  46.397  44.510  0.00  0.00     0.291 C 
ATOM      9  C6  <0> d          49.488  46.011  45.877  0.00  0.00     0.238 C 
ATOM     10  C5  <0> d          49.166  47.118  46.887  0.00  0.00     0.040 C 
ATOM     11  C4  <0> d          47.650  47.331  46.929  0.00  0.00     0.036 C 
ATOM     12  C3  <0> d          47.150  47.666  45.520  0.00  0.00     0.154 C 
ATOM     13  O1  <0> d          47.509  46.611  44.627  0.00  0.00    -0.352 OA
ATOM     14  N3  <0> d          50.950  45.873  45.766  0.00  0.00    -0.070 N 
ATOM     15  H28 <0> d          51.182  45.130  45.109  0.00  0.00     0.274 HD
ATOM     16  H29 <0> d          51.360  46.750  45.446  0.00  0.00     0.274 HD
ATOM     17  H35 <0> d          51.338  45.639  46.687  0.00  0.00     0.274 HD
ATOM     18  C2  <0> d          45.628  47.820  45.543  0.00  0.00     0.208 C 
ATOM     19  C1  <0> d          45.266  49.305  45.462  0.00  0.00     0.042 C 
ATOM     20  N4  <0> d          45.104  47.231  46.787  0.00  0.00    -0.073 N 
ATOM     21  H30 <0> d          44.373  47.826  47.176  0.00  0.00     0.274 HD
ATOM     22  H31 <0> d          44.724  46.304  46.602  0.00  0.00     0.274 HD
ATOM     23  H36 <0> d          45.866  47.150  47.470  0.00  0.00     0.274 HD
ATOM     24  O3  <0> d          50.267  50.013  42.779  0.00  0.00    -0.391 OA
ATOM     25  H18 <0> d          50.717  50.602  42.159  0.00  0.00     0.210 HD
ATOM     26  N2  <0> d          52.048  48.295  42.891  0.00  0.00    -0.070 N 
ATOM     27  H26 <0> d          52.296  47.985  43.828  0.00  0.00     0.274 HD
ATOM     28  H27 <0> d          52.893  48.398  42.332  0.00  0.00     0.274 HD
ATOM     29  H34 <0> d          51.575  49.205  42.952  0.00  0.00     0.274 HD
ATOM     30  N1  <0> d          49.238  50.530  40.177  0.00  0.00    -0.070 N 
ATOM     31  C14 <0> d          49.176  50.573  38.704  0.00  0.00     0.267 C 
ATOM     32  H32 <0> d          49.974  51.168  40.504  0.00  0.00     0.277 HD
ATOM     33  H33 <0> d          48.334  50.825  40.563  0.00  0.00     0.277 HD
ATOM     34  O5  <0> d          52.653  47.071  40.390  0.00  0.00    -0.391 OA
ATOM     35  H25 <0> d          52.807  46.128  40.251  0.00  0.00     0.210 HD
ATOM     36  O4  <0> d          51.874  49.741  40.885  0.00  0.00    -0.386 OA
ATOM     37  C15 <0> d          52.674  50.487  39.966  0.00  0.00     0.202 C 
ENDMDL
MODEL 7
REMARK VINA RESULT:      -6.5      3.397      4.723
ATOM      1  C8  <0> d          50.424  48.480  40.124  0.00  0.00     0.188 C 
ATOM      2  C9  <0> d          51.205  47.318  40.741  0.00  0.00     0.246 C 
ATOM      3  C10 <0> d          51.312  47.522  42.254  0.00  0.00     0.182 C 
ATOM      4  C11 <0> d          49.909  47.574  42.861  0.00  0.00     0.184 C 
ATOM      5  C12 <0> d          49.128  48.735  42.244  0.00  0.00     0.247 C 
ATOM      6  C13 <0> d          49.021  48.532  40.732  0.00  0.00     0.182 C 
ATOM      7  O2  <0> d          50.324  48.288  38.710  0.00  0.00    -0.349 OA
ATOM      8  C7  <0> d          51.508  48.641  37.991  0.00  0.00     0.291 C 
ATOM      9  C6  <0> d          51.629  47.759  36.745  0.00  0.00     0.238 C 
ATOM     10  C5  <0> d          50.431  48.021  35.825  0.00  0.00     0.040 C 
ATOM     11  C4  <0> d          50.383  49.513  35.480  0.00  0.00     0.036 C 
ATOM     12  C3  <0> d          50.310  50.326  36.776  0.00  0.00     0.154 C 
ATOM     13  O1  <0> d          51.436  50.013  37.597  0.00  0.00    -0.352 OA
ATOM     14  N3  <0> d          51.620  46.345  37.154  0.00  0.00    -0.070 N 
ATOM     15  H28 <0> d          52.459  45.877  36.814  0.00  0.00     0.274 HD
ATOM     16  H29 <0> d          51.581  46.275  38.170  0.00  0.00     0.274 HD
ATOM     17  H35 <0> d          50.794  45.883  36.755  0.00  0.00     0.274 HD
ATOM     18  C2  <0> d          50.321  51.819  36.441  0.00  0.00     0.208 C 
ATOM     19  C1  <0> d          51.248  52.067  35.249  0.00  0.00     0.042 C 
ATOM     20  N4  <0> d          50.787  52.572  37.619  0.00  0.00    -0.073 N 
ATOM     21  H30 <0> d          50.262  53.441  37.708  0.00  0.00     0.274 HD
ATOM     22  H31 <0> d          50.664  52.014  38.462  0.00  0.00     0.274 HD
ATOM     23  H36 <0> d          51.782  52.794  37.506  0.00  0.00     0.274 HD
ATOM     24  O3  <0> d          48.340  47.304  40.464  0.00  0.00    -0.391 OA
ATOM     25  H18 <0> d          48.903  46.617  40.081  0.00  0.00     0.210 HD
ATOM     26  N2  <0> d          50.482  46.062  40.475  0.00  0.00    -0.070 N 
ATOM     27  H26 <0> d          50.949  45.285  40.940  0.00  0.00     0.274 HD
ATOM     28  H27 <0> d          49.524  46.132  40.813  0.00  0.00     0.274 HD
ATOM     29  H34 <0> d          50.468  45.888  39.463  0.00  0.00     0.274 HD
ATOM     30  N1  <0> d          47.776  48.777  42.832  0.00  0.00    -0.070 N 
ATOM     31  C14 <0> d          47.829  49.329  44.199  0.00  0.00     0.267 C 
ATOM     32  H32 <0> d          47.392  47.824  42.866  0.00  0.00     0.277 HD
ATOM     33  H33 <0> d          47.172  49.369  42.251  0.00  0.00     0.277 HD
ATOM     34  O5  <0> d          52.042  46.437  42.830  0.00  0.00    -0.391 OA
ATOM     35  H25 <0> d          52.972  46.406  42.571  0.00  0.00     0.210 HD
ATOM     36  O4  <0> d          49.229  46.346  42.594  0.00  0.00    -0.386 OA
ATOM     37  C15 <0> d          48.989  45.548  43.755  0.00  0.00     0.202 C 
ENDMDL
MODEL 8
REMARK VINA RESULT:      -6.5      2.404      3.998
ATOM      1  C8  <0> d          49.069  47.736  42.779  0.00  0.00     0.188 C 
ATOM      2  C9  <0> d          48.603  48.835  43.735  0.00  0.00     0.246 C 
ATOM      3  C10 <0> d          47.512  48.283  44.655  0.00  0.00     0.182 C 
ATOM      4  C11 <0> d          48.070  47.108  45.460  0.00  0.00     0.184 C 
ATOM      5  C12 <0> d          48.536  46.009  44.504  0.00  0.00     0.247 C 
ATOM      6  C13 <0> d          49.627  46.561  43.584  0.00  0.00     0.182 C 
ATOM      7  O2  <0> d          50.089  48.253  41.921  0.00  0.00    -0.349 OA
ATOM      8  C7  <0> d          49.590  48.879  40.736  0.00  0.00     0.291 C 
ATOM      9  C6  <0> d          50.583  49.946  40.266  0.00  0.00     0.238 C 
ATOM     10  C5  <0> d          51.913  49.273  39.911  0.00  0.00     0.040 C 
ATOM     11  C4  <0> d          51.663  48.201  38.845  0.00  0.00     0.036 C 
ATOM     12  C3  <0> d          50.628  47.202  39.371  0.00  0.00     0.154 C 
ATOM     13  O1  <0> d          49.427  47.897  39.710  0.00  0.00    -0.352 OA
ATOM     14  N3  <0> d          50.808  50.907  41.359  0.00  0.00    -0.070 N 
ATOM     15  H28 <0> d          51.727  50.757  41.772  0.00  0.00     0.274 HD
ATOM     16  H29 <0> d          50.747  51.860  41.003  0.00  0.00     0.274 HD
ATOM     17  H35 <0> d          50.091  50.772  42.081  0.00  0.00     0.274 HD
ATOM     18  C2  <0> d          50.329  46.163  38.289  0.00  0.00     0.208 C 
ATOM     19  C1  <0> d          51.086  46.526  37.010  0.00  0.00     0.042 C 
ATOM     20  N4  <0> d          48.877  46.136  38.037  0.00  0.00    -0.073 N 
ATOM     21  H30 <0> d          48.674  46.530  37.119  0.00  0.00     0.274 HD
ATOM     22  H31 <0> d          48.532  45.179  38.079  0.00  0.00     0.274 HD
ATOM     23  H36 <0> d          48.400  46.696  38.753  0.00  0.00     0.274 HD
ATOM     24  O3  <0> d          50.732  47.006  44.373  0.00  0.00    -0.391 OA
ATOM     25  H18 <0> d          51.586  46.648  44.092  0.00  0.00     0.210 HD
ATOM     26  N2  <0> d          49.748  49.271  44.556  0.00  0.00    -0.070 N 
ATOM     27  H26 <0> d          49.416  49.730  45.402  0.00  0.00     0.274 HD
ATOM     28  H27 <0> d          50.322  48.468  44.809  0.00  0.00     0.274 HD
ATOM     29  H34 <0> d          50.318  49.933  44.016  0.00  0.00     0.274 HD
ATOM     30  N1  <0> d          49.075  44.882  45.286  0.00  0.00    -0.070 N 
ATOM     31  C14 <0> d          48.046  43.838  45.457  0.00  0.00     0.267 C 
ATOM     32  H32 <0> d          49.370  45.221  46.210  0.00  0.00     0.277 HD
ATOM     33  H33 <0> d          49.883  44.483  44.795  0.00  0.00     0.277 HD
ATOM     34  O5  <0> d          47.077  49.310  45.549  0.00  0.00    -0.391 OA
ATOM     35  H25 <0> d          47.182  50.205  45.201  0.00  0.00     0.210 HD
ATOM     36  O4  <0> d          49.176  47.554  46.249  0.00  0.00    -0.386 OA
ATOM     37  C15 <0> d          48.889  47.661  47.644  0.00  0.00     0.202 C 
ENDMDL
MODEL 9
REMARK VINA RESULT:      -6.2      3.360      4.657
ATOM      1  C8  <0> d          48.839  49.423  41.260  0.00  0.00     0.188 C 
ATOM      2  C9  <0> d          47.327  49.250  41.415  0.00  0.00     0.246 C 
ATOM      3  C10 <0> d          46.932  49.505  42.872  0.00  0.00     0.182 C 
ATOM      4  C11 <0> d          47.326  50.929  43.265  0.00  0.00     0.184 C 
ATOM      5  C12 <0> d          48.837  51.102  43.110  0.00  0.00     0.247 C 
ATOM      6  C13 <0> d          49.233  50.848  41.654  0.00  0.00     0.182 C 
ATOM      7  O2  <0> d          49.208  49.186  39.899  0.00  0.00    -0.349 OA
ATOM      8  C7  <0> d          49.086  47.820  39.494  0.00  0.00     0.291 C 
ATOM      9  C6  <0> d          49.599  47.666  38.059  0.00  0.00     0.238 C 
ATOM     10  C5  <0> d          51.086  48.034  38.015  0.00  0.00     0.040 C 
ATOM     11  C4  <0> d          51.850  47.147  39.004  0.00  0.00     0.036 C 
ATOM     12  C3  <0> d          51.249  47.322  40.402  0.00  0.00     0.154 C 
ATOM     13  O1  <0> d          49.860  46.993  40.366  0.00  0.00    -0.352 OA
ATOM     14  N3  <0> d          48.852  48.582  37.181  0.00  0.00    -0.070 N 
ATOM     15  H28 <0> d          49.216  49.530  37.273  0.00  0.00     0.274 HD
ATOM     16  H29 <0> d          48.934  48.281  36.211  0.00  0.00     0.274 HD
ATOM     17  H35 <0> d          47.862  48.577  37.451  0.00  0.00     0.274 HD
ATOM     18  C2  <0> d          51.968  46.395  41.384  0.00  0.00     0.208 C 
ATOM     19  C1  <0> d          50.939  45.723  42.296  0.00  0.00     0.042 C 
ATOM     20  N4  <0> d          52.922  47.186  42.181  0.00  0.00    -0.073 N 
ATOM     21  H30 <0> d          53.870  47.044  41.834  0.00  0.00     0.274 HD
ATOM     22  H31 <0> d          52.686  48.175  42.129  0.00  0.00     0.274 HD
ATOM     23  H36 <0> d          52.876  46.882  43.161  0.00  0.00     0.274 HD
ATOM     24  O3  <0> d          48.557  51.780  40.807  0.00  0.00    -0.391 OA
ATOM     25  H18 <0> d          48.374  52.632  41.228  0.00  0.00     0.210 HD
ATOM     26  N2  <0> d          46.643  50.231  40.553  0.00  0.00    -0.070 N 
ATOM     27  H26 <0> d          45.634  50.160  40.676  0.00  0.00     0.274 HD
ATOM     28  H27 <0> d          46.948  51.174  40.787  0.00  0.00     0.274 HD
ATOM     29  H34 <0> d          46.876  50.037  39.572  0.00  0.00     0.274 HD
ATOM     30  N1  <0> d          49.209  52.478  43.487  0.00  0.00    -0.070 N 
ATOM     31  C14 <0> d          48.824  52.747  44.886  0.00  0.00     0.267 C 
ATOM     32  H32 <0> d          48.726  53.142  42.870  0.00  0.00     0.277 HD
ATOM     33  H33 <0> d          50.224  52.595  43.387  0.00  0.00     0.277 HD
ATOM     34  O5  <0> d          45.519  49.343  43.017  0.00  0.00    -0.391 OA
ATOM     35  H25 <0> d          45.159  48.584  42.541  0.00  0.00     0.210 HD
ATOM     36  O4  <0> d          46.650  51.862  42.419  0.00  0.00    -0.386 OA
ATOM     37  C15 <0> d          45.668  52.653  43.091  0.00  0.00     0.202 C 
ENDMDL
MODEL 10
REMARK VINA RESULT:      -6.2      1.651      2.928
ATOM      1  C8  <0> d          49.234  49.041  44.814  0.00  0.00     0.188 C 
ATOM      2  C9  <0> d          49.893  47.883  45.565  0.00  0.00     0.246 C 
ATOM      3  C10 <0> d          49.060  47.536  46.802  0.00  0.00     0.182 C 
ATOM      4  C11 <0> d          47.651  47.129  46.370  0.00  0.00     0.184 C 
ATOM      5  C12 <0> d          46.992  48.287  45.619  0.00  0.00     0.247 C 
ATOM      6  C13 <0> d          47.824  48.634  44.383  0.00  0.00     0.182 C 
ATOM      7  O2  <0> d          50.011  49.363  43.659  0.00  0.00    -0.349 OA
ATOM      8  C7  <0> d          49.330  49.145  42.421  0.00  0.00     0.291 C 
ATOM      9  C6  <0> d          49.494  50.376  41.525  0.00  0.00     0.238 C 
ATOM     10  C5  <0> d          50.980  50.574  41.209  0.00  0.00     0.040 C 
ATOM     11  C4  <0> d          51.526  49.301  40.554  0.00  0.00     0.036 C 
ATOM     12  C3  <0> d          51.284  48.111  41.488  0.00  0.00     0.154 C 
ATOM     13  O1  <0> d          49.887  48.003  41.765  0.00  0.00    -0.352 OA
ATOM     14  N3  <0> d          48.994  51.562  42.240  0.00  0.00    -0.070 N 
ATOM     15  H28 <0> d          48.063  51.378  42.612  0.00  0.00     0.274 HD
ATOM     16  H29 <0> d          49.624  51.800  43.005  0.00  0.00     0.274 HD
ATOM     17  H35 <0> d          48.943  52.353  41.588  0.00  0.00     0.274 HD
ATOM     18  C2  <0> d          51.772  46.827  40.816  0.00  0.00     0.208 C 
ATOM     19  C1  <0> d          51.816  47.031  39.300  0.00  0.00     0.042 C 
ATOM     20  N4  <0> d          50.856  45.726  41.159  0.00  0.00    -0.073 N 
ATOM     21  H30 <0> d          50.732  45.676  42.170  0.00  0.00     0.274 HD
ATOM     22  H31 <0> d          49.951  45.872  40.714  0.00  0.00     0.274 HD
ATOM     23  H36 <0> d          51.254  44.840  40.827  0.00  0.00     0.274 HD
ATOM     24  O3  <0> d          47.899  47.492  43.526  0.00  0.00    -0.391 OA
ATOM     25  H18 <0> d          48.544  47.579  42.810  0.00  0.00     0.210 HD
ATOM     26  N2  <0> d          49.946  46.707  44.677  0.00  0.00    -0.070 N 
ATOM     27  H26 <0> d          50.040  47.005  43.708  0.00  0.00     0.274 HD
ATOM     28  H27 <0> d          50.737  46.116  44.928  0.00  0.00     0.274 HD
ATOM     29  H34 <0> d          49.079  46.167  44.780  0.00  0.00     0.274 HD
ATOM     30  N1  <0> d          45.635  47.886  45.203  0.00  0.00    -0.070 N 
ATOM     31  C14 <0> d          44.861  49.066  44.776  0.00  0.00     0.267 C 
ATOM     32  H32 <0> d          45.158  47.435  45.994  0.00  0.00     0.277 HD
ATOM     33  H33 <0> d          45.702  47.223  44.422  0.00  0.00     0.277 HD
ATOM     34  O5  <0> d          49.677  46.454  47.502  0.00  0.00    -0.391 OA
ATOM     35  H25 <0> d          49.085  45.988  48.107  0.00  0.00     0.210 HD
ATOM     36  O4  <0> d          47.727  45.987  45.513  0.00  0.00    -0.386 OA
ATOM     37  C15 <0> d          46.932  44.882  45.944  0.00  0.00     0.202 C 
ENDMDL
MODEL 1
REMARK VINA RESULT:      -7.0      0.000      0.000
ATOM      1  C8  <0> d          49.833  48.278  44.555  0.00  0.00     0.188 C 
ATOM      2  C9  <0> d          49.603  47.289  45.700  0.00  0.00     0.246 C 
ATOM      3  C10 <0> d          48.981  48.023  46.890  0.00  0.00     0.182 C 
ATOM      4  C11 <0> d          47.645  48.637  46.469  0.00  0.00     0.184 C 
ATOM      5  C12 <0> d          47.875  49.626  45.324  0.00  0.00     0.247 C 
ATOM      6  C13 <0> d          48.496  48.892  44.134  0.00  0.00     0.182 C 
ATOM      7  O2  <0> d          50.413  47.592  43.443  0.00  0.00    -0.349 OA
ATOM      8  C7  <0> d          51.779  47.938  43.194  0.00  0.00     0.291 C 
ATOM      9  C6  <0> d          52.473  46.782  42.469  0.00  0.00     0.238 C 
ATOM     10  C5  <0> d          51.795  46.562  41.112  0.00  0.00     0.040 C 
ATOM     11  C4  <0> d          51.845  47.866  40.311  0.00  0.00     0.036 C 
ATOM     12  C3  <0> d          51.175  48.979  41.121  0.00  0.00     0.154 C 
ATOM     13  O1  <0> d          51.833  49.111  42.382  0.00  0.00    -0.352 OA
ATOM     14  N3  <0> d          52.340  45.558  43.277  0.00  0.00    -0.070 N 
ATOM     15  H28 <0> d          53.215  45.363  43.760  0.00  0.00     0.274 HD
ATOM     16  H29 <0> d          51.593  45.669  43.960  0.00  0.00     0.274 HD
ATOM     17  H35 <0> d          52.114  44.769  42.659  0.00  0.00     0.274 HD
ATOM     18  C2  <0> d          51.274  50.299  40.353  0.00  0.00     0.208 C 
ATOM     19  C1  <0> d          52.729  50.545  39.947  0.00  0.00     0.042 C 
ATOM     20  N4  <0> d          50.789  51.392  41.212  0.00  0.00    -0.073 N 
ATOM     21  H30 <0> d          50.959  52.292  40.765  0.00  0.00     0.274 HD
ATOM     22  H31 <0> d          49.791  51.285  41.387  0.00  0.00     0.274 HD
ATOM     23  H36 <0> d          51.289  51.365  42.108  0.00  0.00     0.274 HD
ATOM     24  O3  <0> d          47.613  47.857  43.698  0.00  0.00    -0.391 OA
ATOM     25  H18 <0> d          48.061  47.040  43.438  0.00  0.00     0.210 HD
ATOM     26  N2  <0> d          48.674  46.240  45.243  0.00  0.00    -0.070 N 
ATOM     27  H26 <0> d          49.191  45.394  45.006  0.00  0.00     0.274 HD
ATOM     28  H27 <0> d          47.998  46.028  45.976  0.00  0.00     0.274 HD
ATOM     29  H34 <0> d          48.172  46.570  44.411  0.00  0.00     0.274 HD
ATOM     30  N1  <0> d          46.582  50.210  44.921  0.00  0.00    -0.070 N 
ATOM     31  C14 <0> d          46.346  51.476  45.641  0.00  0.00     0.267 C 
ATOM     32  H32 <0> d          45.828  49.549  45.142  0.00  0.00     0.277 HD
ATOM     33  H33 <0> d          46.592  50.393  43.910  0.00  0.00     0.277 HD
ATOM     34  O5  <0> d          48.765  47.099  47.959  0.00  0.00    -0.391 OA
ATOM     35  H25 <0> d          49.216  47.335  48.780  0.00  0.00     0.210 HD
ATOM     36  O4  <0> d          46.760  47.601  46.033  0.00  0.00    -0.386 OA
ATOM     37  C15 <0> d          45.543  47.526  46.776  0.00  0.00     0.202 C 
ENDMDL
MODEL 2
REMARK VINA RESULT:      -7.0      2.795      3.634
ATOM      1  C8  <0> d          50.441  47.765  41.611  0.00  0.00     0.188 C 
ATOM      2  C9  <0> d          51.024  46.625  42.448  0.00  0.00     0.246 C 
ATOM      3  C10 <0> d          51.565  47.184  43.765  0.00  0.00     0.182 C 
ATOM      4  C11 <0> d          50.431  47.857  44.539  0.00  0.00     0.184 C 
ATOM      5  C12 <0> d          49.849  48.998  43.702  0.00  0.00     0.247 C 
ATOM      6  C13 <0> d          49.306  48.438  42.385  0.00  0.00     0.182 C 
ATOM      7  O2  <0> d          49.935  47.243  40.381  0.00  0.00    -0.349 OA
ATOM      8  C7  <0> d          50.827  47.391  39.274  0.00  0.00     0.291 C 
ATOM      9  C6  <0> d          50.716  46.168  38.361  0.00  0.00     0.238 C 
ATOM     10  C5  <0> d          49.291  46.088  37.801  0.00  0.00     0.040 C 
ATOM     11  C4  <0> d          48.968  47.393  37.067  0.00  0.00     0.036 C 
ATOM     12  C3  <0> d          49.147  48.569  38.031  0.00  0.00     0.154 C 
ATOM     13  O1  <0> d          50.484  48.567  38.539  0.00  0.00    -0.352 OA
ATOM     14  N3  <0> d          50.992  44.954  39.147  0.00  0.00    -0.070 N 
ATOM     15  H28 <0> d          51.624  45.173  39.915  0.00  0.00     0.274 HD
ATOM     16  H29 <0> d          50.124  44.574  39.521  0.00  0.00     0.274 HD
ATOM     17  H35 <0> d          51.432  44.252  38.541  0.00  0.00     0.274 HD
ATOM     18  C2  <0> d          48.884  49.881  37.290  0.00  0.00     0.208 C 
ATOM     19  C1  <0> d          50.000  50.122  36.270  0.00  0.00     0.042 C 
ATOM     20  N4  <0> d          48.834  50.982  38.266  0.00  0.00    -0.073 N 
ATOM     21  H30 <0> d          49.379  50.743  39.094  0.00  0.00     0.274 HD
ATOM     22  H31 <0> d          49.206  51.836  37.852  0.00  0.00     0.274 HD
ATOM     23  H36 <0> d          47.859  51.143  38.544  0.00  0.00     0.274 HD
ATOM     24  O3  <0> d          48.283  47.480  42.660  0.00  0.00    -0.391 OA
ATOM     25  H18 <0> d          48.600  46.567  42.703  0.00  0.00     0.210 HD
ATOM     26  N2  <0> d          49.954  45.655  42.742  0.00  0.00    -0.070 N 
ATOM     27  H26 <0> d          49.104  46.144  43.019  0.00  0.00     0.274 HD
ATOM     28  H27 <0> d          49.763  45.085  41.919  0.00  0.00     0.274 HD
ATOM     29  H34 <0> d          50.254  45.043  43.510  0.00  0.00     0.274 HD
ATOM     30  N1  <0> d          48.752  49.639  44.452  0.00  0.00    -0.070 N 
ATOM     31  C14 <0> d          49.294  50.424  45.578  0.00  0.00     0.267 C 
ATOM     32  H32 <0> d          48.122  48.914  44.817  0.00  0.00     0.277 HD
ATOM     33  H33 <0> d          48.230  50.263  43.825  0.00  0.00     0.277 HD
ATOM     34  O5  <0> d          52.109  46.118  44.547  0.00  0.00    -0.391 OA
ATOM     35  H25 <0> d          51.730  46.047  45.433  0.00  0.00     0.210 HD
ATOM     36  O4  <0> d          49.407  46.898  44.814  0.00  0.00    -0.386 OA
ATOM     37  C15 <0> d          49.214  46.636  46.205  0.00  0.00     0.202 C 
ENDMDL
MODEL 3
REMARK VINA RESULT:      -6.9      1.887      2.432
ATOM      1  C8  <0> d          50.829  47.995  42.720  0.00  0.00     0.188 C 
ATOM      2  C9  <0> d          51.104  46.739  43.549  0.00  0.00     0.246 C 
ATOM      3  C10 <0> d          51.210  47.117  45.028  0.00  0.00     0.182 C 
ATOM      4  C11 <0> d          49.898  47.754  45.486  0.00  0.00     0.184 C 
ATOM      5  C12 <0> d          49.623  49.011  44.657  0.00  0.00     0.247 C 
ATOM      6  C13 <0> d          49.516  48.632  43.179  0.00  0.00     0.182 C 
ATOM      7  O2  <0> d          50.729  47.642  41.338  0.00  0.00    -0.349 OA
ATOM      8  C7  <0> d          51.990  47.410  40.704  0.00  0.00     0.291 C 
ATOM      9  C6  <0> d          51.812  46.397  39.570  0.00  0.00     0.238 C 
ATOM     10  C5  <0> d          50.864  46.983  38.518  0.00  0.00     0.040 C 
ATOM     11  C4  <0> d          51.430  48.318  38.023  0.00  0.00     0.036 C 
ATOM     12  C3  <0> d          51.623  49.256  39.218  0.00  0.00     0.154 C 
ATOM     13  O1  <0> d          52.489  48.638  40.172  0.00  0.00    -0.352 OA
ATOM     14  N3  <0> d          51.220  45.163  40.115  0.00  0.00    -0.070 N 
ATOM     15  H28 <0> d          51.124  44.468  39.378  0.00  0.00     0.274 HD
ATOM     16  H29 <0> d          51.811  44.791  40.857  0.00  0.00     0.274 HD
ATOM     17  H35 <0> d          50.292  45.375  40.500  0.00  0.00     0.274 HD
ATOM     18  C2  <0> d          52.244  50.570  38.740  0.00  0.00     0.208 C 
ATOM     19  C1  <0> d          53.314  51.020  39.739  0.00  0.00     0.042 C 
ATOM     20  N4  <0> d          51.186  51.588  38.628  0.00  0.00    -0.073 N 
ATOM     21  H30 <0> d          50.630  51.425  37.788  0.00  0.00     0.274 HD
ATOM     22  H31 <0> d          50.580  51.556  39.446  0.00  0.00     0.274 HD
ATOM     23  H36 <0> d          51.617  52.518  38.568  0.00  0.00     0.274 HD
ATOM     24  O3  <0> d          48.447  47.702  43.001  0.00  0.00    -0.391 OA
ATOM     25  H18 <0> d          47.713  47.822  43.620  0.00  0.00     0.210 HD
ATOM     26  N2  <0> d          49.984  45.797  43.372  0.00  0.00    -0.070 N 
ATOM     27  H26 <0> d          50.041  45.352  42.457  0.00  0.00     0.274 HD
ATOM     28  H27 <0> d          50.010  45.082  44.098  0.00  0.00     0.274 HD
ATOM     29  H34 <0> d          49.097  46.310  43.440  0.00  0.00     0.274 HD
ATOM     30  N1  <0> d          48.354  49.618  45.103  0.00  0.00    -0.070 N 
ATOM     31  C14 <0> d          48.564  50.389  46.342  0.00  0.00     0.267 C 
ATOM     32  H32 <0> d          47.667  48.875  45.278  0.00  0.00     0.277 HD
ATOM     33  H33 <0> d          48.001  50.244  44.369  0.00  0.00     0.277 HD
ATOM     34  O5  <0> d          51.466  45.943  45.802  0.00  0.00    -0.391 OA
ATOM     35  H25 <0> d          52.366  45.888  46.147  0.00  0.00     0.210 HD
ATOM     36  O4  <0> d          48.827  46.823  45.308  0.00  0.00    -0.386 OA
ATOM     37  C15 <0> d          48.090  46.550  46.501  0.00  0.00     0.202 C 
ENDMDL
MODEL 4
REMARK VINA RESULT:      -6.8      2.476      3.676
ATOM      1  C8  <0> d          50.689  48.052  43.003  0.00  0.00     0.188 C 
ATOM      2  C9  <0> d          51.477  46.933  43.687  0.00  0.00     0.246 C 
ATOM      3  C10 <0> d          51.119  46.892  45.174  0.00  0.00     0.182 C 
ATOM      4  C11 <0> d          49.621  46.631  45.330  0.00  0.00     0.184 C 
ATOM      5  C12 <0> d          48.833  47.751  44.648  0.00  0.00     0.247 C 
ATOM      6  C13 <0> d          49.190  47.791  43.160  0.00  0.00     0.182 C 
ATOM      7  O2  <0> d          51.023  48.090  41.614  0.00  0.00    -0.349 OA
ATOM      8  C7  <0> d          50.038  48.727  40.795  0.00  0.00     0.291 C 
ATOM      9  C6  <0> d          50.665  49.928  40.084  0.00  0.00     0.238 C 
ATOM     10  C5  <0> d          51.787  49.436  39.162  0.00  0.00     0.040 C 
ATOM     11  C4  <0> d          51.213  48.411  38.179  0.00  0.00     0.036 C 
ATOM     12  C3  <0> d          50.565  47.269  38.966  0.00  0.00     0.154 C 
ATOM     13  O1  <0> d          49.553  47.798  39.825  0.00  0.00    -0.352 OA
ATOM     14  N3  <0> d          51.235  50.840  41.090  0.00  0.00    -0.070 N 
ATOM     15  H28 <0> d          51.803  50.315  41.753  0.00  0.00     0.274 HD
ATOM     16  H29 <0> d          51.811  51.546  40.635  0.00  0.00     0.274 HD
ATOM     17  H35 <0> d          50.472  51.304  41.596  0.00  0.00     0.274 HD
ATOM     18  C2  <0> d          49.937  46.270  37.991  0.00  0.00     0.208 C 
ATOM     19  C1  <0> d          50.435  46.561  36.573  0.00  0.00     0.042 C 
ATOM     20  N4  <0> d          48.471  46.393  38.056  0.00  0.00    -0.073 N 
ATOM     21  H30 <0> d          48.202  46.966  38.855  0.00  0.00     0.274 HD
ATOM     22  H31 <0> d          48.116  46.818  37.201  0.00  0.00     0.274 HD
ATOM     23  H36 <0> d          48.058  45.459  38.161  0.00  0.00     0.274 HD
ATOM     24  O3  <0> d          48.859  46.540  42.557  0.00  0.00    -0.391 OA
ATOM     25  H18 <0> d          49.404  46.315  41.790  0.00  0.00     0.210 HD
ATOM     26  N2  <0> d          51.110  45.646  43.068  0.00  0.00    -0.070 N 
ATOM     27  H26 <0> d          50.390  45.790  42.362  0.00  0.00     0.274 HD
ATOM     28  H27 <0> d          51.928  45.220  42.636  0.00  0.00     0.274 HD
ATOM     29  H34 <0> d          50.747  45.014  43.792  0.00  0.00     0.274 HD
ATOM     30  N1  <0> d          47.388  47.490  44.800  0.00  0.00    -0.070 N 
ATOM     31  C14 <0> d          46.956  47.796  46.176  0.00  0.00     0.267 C 
ATOM     32  H32 <0> d          47.200  46.501  44.597  0.00  0.00     0.277 HD
ATOM     33  H33 <0> d          46.866  48.080  44.141  0.00  0.00     0.277 HD
ATOM     34  O5  <0> d          51.854  45.845  45.812  0.00  0.00    -0.391 OA
ATOM     35  H25 <0> d          51.349  45.033  45.945  0.00  0.00     0.210 HD
ATOM     36  O4  <0> d          49.288  45.378  44.727  0.00  0.00    -0.386 OA
ATOM     37  C15 <0> d          48.587  44.484  45.592  0.00  0.00     0.202 C 
ENDMDL
MODEL 5
REMARK VINA RESULT:      -6.7      3.644      6.003
ATOM      1  C8  <0> d          49.722  49.939  39.862  0.00  0.00     0.188 C 
ATOM      2  C9  <0> d          48.270  50.084  40.321  0.00  0.00     0.246 C 
ATOM      3  C10 <0> d          47.947  48.992  41.343  0.00  0.00     0.182 C 
ATOM      4  C11 <0> d          48.880  49.127  42.547  0.00  0.00     0.184 C 
ATOM      5  C12 <0> d          50.332  48.981  42.087  0.00  0.00     0.247 C 
ATOM      6  C13 <0> d          50.655  50.075  41.067  0.00  0.00     0.182 C 
ATOM      7  O2  <0> d          50.024  50.961  38.908  0.00  0.00    -0.349 OA
ATOM      8  C7  <0> d          49.304  50.841  37.678  0.00  0.00     0.291 C 
ATOM      9  C6  <0> d          49.163  52.222  37.033  0.00  0.00     0.238 C 
ATOM     10  C5  <0> d          50.556  52.767  36.704  0.00  0.00     0.040 C 
ATOM     11  C4  <0> d          51.281  51.771  35.794  0.00  0.00     0.036 C 
ATOM     12  C3  <0> d          51.341  50.407  36.488  0.00  0.00     0.154 C 
ATOM     13  O1  <0> d          50.014  49.972  36.794  0.00  0.00    -0.352 OA
ATOM     14  N3  <0> d          48.503  53.132  37.985  0.00  0.00    -0.070 N 
ATOM     15  H28 <0> d          49.202  53.678  38.486  0.00  0.00     0.274 HD
ATOM     16  H29 <0> d          47.874  53.761  37.489  0.00  0.00     0.274 HD
ATOM     17  H35 <0> d          47.961  52.579  38.660  0.00  0.00     0.274 HD
ATOM     18  C2  <0> d          52.010  49.391  35.560  0.00  0.00     0.208 C 
ATOM     19  C1  <0> d          51.163  49.221  34.296  0.00  0.00     0.042 C 
ATOM     20  N4  <0> d          52.140  48.107  36.268  0.00  0.00    -0.073 N 
ATOM     21  H30 <0> d          52.755  48.212  37.075  0.00  0.00     0.274 HD
ATOM     22  H31 <0> d          51.226  47.784  36.580  0.00  0.00     0.274 HD
ATOM     23  H36 <0> d          52.541  47.409  35.631  0.00  0.00     0.274 HD
ATOM     24  O3  <0> d          50.473  51.357  41.669  0.00  0.00    -0.391 OA
ATOM     25  H18 <0> d          49.582  51.720  41.561  0.00  0.00     0.210 HD
ATOM     26  N2  <0> d          48.101  51.403  40.959  0.00  0.00    -0.070 N 
ATOM     27  H26 <0> d          47.924  52.114  40.250  0.00  0.00     0.274 HD
ATOM     28  H27 <0> d          47.322  51.377  41.615  0.00  0.00     0.274 HD
ATOM     29  H34 <0> d          48.960  51.644  41.468  0.00  0.00     0.274 HD
ATOM     30  N1  <0> d          51.226  49.117  43.253  0.00  0.00    -0.070 N 
ATOM     31  C14 <0> d          51.103  47.939  44.131  0.00  0.00     0.267 C 
ATOM     32  H32 <0> d          50.969  49.961  43.779  0.00  0.00     0.277 HD
ATOM     33  H33 <0> d          52.197  49.198  42.929  0.00  0.00     0.277 HD
ATOM     34  O5  <0> d          46.591  49.127  41.773  0.00  0.00    -0.391 OA
ATOM     35  H25 <0> d          46.489  49.593  42.613  0.00  0.00     0.210 HD
ATOM     36  O4  <0> d          48.698  50.410  43.149  0.00  0.00    -0.386 OA
ATOM     37  C15 <0> d          48.207  50.359  44.490  0.00  0.00     0.202 C 
ENDMDL
MODEL 6
REMARK VINA RESULT:      -6.5      2.733      6.852
ATOM      1  C8  <0> d          48.291  49.288  42.348  0.00  0.00     0.188 C 
ATOM      2  C9  <0> d          47.748  50.394  41.440  0.00  0.00     0.246 C 
ATOM      3  C10 <0> d          48.880  50.937  40.566  0.00  0.00     0.182 C 
ATOM      4  C11 <0> d          49.451  49.807  39.710  0.00  0.00     0.184 C 
ATOM      5  C12 <0> d          49.994  48.701  40.618  0.00  0.00     0.247 C 
ATOM      6  C13 <0> d          48.861  48.157  41.490  0.00  0.00     0.182 C 
ATOM      7  O2  <0> d          47.233  48.780  43.164  0.00  0.00    -0.349 OA
ATOM      8  C7  <0> d          47.043  49.498  44.386  0.00  0.00     0.291 C 
ATOM      9  C6  <0> d          45.674  49.149  44.975  0.00  0.00     0.238 C 
ATOM     10  C5  <0> d          45.636  47.653  45.305  0.00  0.00     0.040 C 
ATOM     11  C4  <0> d          46.783  47.323  46.264  0.00  0.00     0.036 C 
ATOM     12  C3  <0> d          48.109  47.742  45.624  0.00  0.00     0.154 C 
ATOM     13  O1  <0> d          48.067  49.137  45.314  0.00  0.00    -0.352 OA
ATOM     14  N3  <0> d          44.631  49.448  43.979  0.00  0.00    -0.070 N 
ATOM     15  H28 <0> d          45.033  49.448  43.043  0.00  0.00     0.274 HD
ATOM     16  H29 <0> d          43.890  48.752  44.029  0.00  0.00     0.274 HD
ATOM     17  H35 <0> d          44.234  50.375  44.174  0.00  0.00     0.274 HD
ATOM     18  C2  <0> d          49.256  47.471  46.601  0.00  0.00     0.208 C 
ATOM     19  C1  <0> d          49.747  46.032  46.421  0.00  0.00     0.042 C 
ATOM     20  N4  <0> d          48.775  47.681  47.976  0.00  0.00    -0.073 N 
ATOM     21  H30 <0> d          47.861  48.134  47.963  0.00  0.00     0.274 HD
ATOM     22  H31 <0> d          48.703  46.790  48.463  0.00  0.00     0.274 HD
ATOM     23  H36 <0> d          49.438  48.283  48.478  0.00  0.00     0.274 HD
ATOM     24  O3  <0> d          47.831  47.625  40.657  0.00  0.00    -0.391 OA
ATOM     25  H18 <0> d          47.118  47.186  41.143  0.00  0.00     0.210 HD
ATOM     26  N2  <0> d          46.701  49.826  40.572  0.00  0.00    -0.070 N 
ATOM     27  H26 <0> d          45.913  49.509  41.135  0.00  0.00     0.274 HD
ATOM     28  H27 <0> d          46.381  50.528  39.906  0.00  0.00     0.274 HD
ATOM     29  H34 <0> d          47.087  49.027  40.055  0.00  0.00     0.274 HD
ATOM     30  N1  <0> d          50.539  47.613  39.784  0.00  0.00    -0.070 N 
ATOM     31  C14 <0> d          51.982  47.446  40.040  0.00  0.00     0.267 C 
ATOM     32  H32 <0> d          50.395  47.841  38.793  0.00  0.00     0.277 HD
ATOM     33  H33 <0> d          50.052  46.737  40.008  0.00  0.00     0.277 HD
ATOM     34  O5  <0> d          48.373  51.970  39.718  0.00  0.00    -0.391 OA
ATOM     35  H25 <0> d          48.116  52.774  40.187  0.00  0.00     0.210 HD
ATOM     36  O4  <0> d          48.420  49.274  38.875  0.00  0.00    -0.386 OA
ATOM     37  C15 <0> d          48.705  49.351  37.477  0.00  0.00     0.202 C 
ENDMDL
MODEL 7
REMARK VINA RESULT:      -6.5      2.437      3.996
ATOM      1  C8  <0> d          49.109  47.662  42.769  0.00  0.00     0.188 C 
ATOM      2  C9  <0> d          48.629  48.801  43.670  0.00  0.00     0.246 C 
ATOM      3  C10 <0> d          47.526  48.288  44.598  0.00  0.00     0.182 C 
ATOM      4  C11 <0> d          48.074  47.150  45.460  0.00  0.00     0.184 C 
ATOM      5  C12 <0> d          48.553  46.010  44.558  0.00  0.00     0.247 C 
ATOM      6  C13 <0> d          49.657  46.524  43.632  0.00  0.00     0.182 C 
ATOM      7  O2  <0> d          50.140  48.142  41.902  0.00  0.00    -0.349 OA
ATOM      8  C7  <0> d          49.655  48.794  40.726  0.00  0.00     0.291 C 
ATOM      9  C6  <0> d          50.657  49.865  40.287  0.00  0.00     0.238 C 
ATOM     10  C5  <0> d          51.987  49.192  39.930  0.00  0.00     0.040 C 
ATOM     11  C4  <0> d          51.741  48.144  38.841  0.00  0.00     0.036 C 
ATOM     12  C3  <0> d          50.696  47.140  39.337  0.00  0.00     0.154 C 
ATOM     13  O1  <0> d          49.495  47.834  39.680  0.00  0.00    -0.352 OA
ATOM     14  N3  <0> d          50.877  50.803  41.400  0.00  0.00    -0.070 N 
ATOM     15  H28 <0> d          50.679  51.755  41.097  0.00  0.00     0.274 HD
ATOM     16  H29 <0> d          50.271  50.565  42.184  0.00  0.00     0.274 HD
ATOM     17  H35 <0> d          51.856  50.744  41.703  0.00  0.00     0.274 HD
ATOM     18  C2  <0> d          50.400  46.123  38.232  0.00  0.00     0.208 C 
ATOM     19  C1  <0> d          51.151  46.522  36.959  0.00  0.00     0.042 C 
ATOM     20  N4  <0> d          48.949  46.093  37.984  0.00  0.00    -0.073 N 
ATOM     21  H30 <0> d          48.462  45.724  38.800  0.00  0.00     0.274 HD
ATOM     22  H31 <0> d          48.608  47.031  37.781  0.00  0.00     0.274 HD
ATOM     23  H36 <0> d          48.757  45.486  37.177  0.00  0.00     0.274 HD
ATOM     24  O3  <0> d          50.751  47.004  44.414  0.00  0.00    -0.391 OA
ATOM     25  H18 <0> d          51.519  47.276  43.892  0.00  0.00     0.210 HD
ATOM     26  N2  <0> d          49.763  49.273  44.486  0.00  0.00    -0.070 N 
ATOM     27  H26 <0> d          50.642  48.951  44.083  0.00  0.00     0.274 HD
ATOM     28  H27 <0> d          49.763  50.291  44.530  0.00  0.00     0.274 HD
ATOM     29  H34 <0> d          49.674  48.897  45.438  0.00  0.00     0.274 HD
ATOM     30  N1  <0> d          49.083  44.919  45.397  0.00  0.00    -0.070 N 
ATOM     31  C14 <0> d          48.119  43.804  45.455  0.00  0.00     0.267 C 
ATOM     32  H32 <0> d          49.250  45.272  46.347  0.00  0.00     0.277 HD
ATOM     33  H33 <0> d          49.967  44.582  44.997  0.00  0.00     0.277 HD
ATOM     34  O5  <0> d          47.079  49.352  45.441  0.00  0.00    -0.391 OA
ATOM     35  H25 <0> d          47.043  50.212  45.003  0.00  0.00     0.210 HD
ATOM     36  O4  <0> d          49.169  47.630  46.244  0.00  0.00    -0.386 OA
ATOM     37  C15 <0> d          48.900  47.688  47.645  0.00  0.00     0.202 C 
ENDMDL
MODEL 8
REMARK VINA RESULT:      -6.5      2.418      6.692
ATOM      1  C8  <0> d          49.775  48.158  43.276  0.00  0.00     0.188 C 
ATOM      2  C9  <0> d          49.876  49.568  42.689  0.00  0.00     0.246 C 
ATOM      3  C10 <0> d          51.014  49.614  41.667  0.00  0.00     0.182 C 
ATOM      4  C11 <0> d          50.733  48.613  40.546  0.00  0.00     0.184 C 
ATOM      5  C12 <0> d          50.633  47.203  41.133  0.00  0.00     0.247 C 
ATOM      6  C13 <0> d          49.494  47.157  42.154  0.00  0.00     0.182 C 
ATOM      7  O2  <0> d          48.711  48.115  44.230  0.00  0.00    -0.349 OA
ATOM      8  C7  <0> d          49.112  47.671  45.529  0.00  0.00     0.291 C 
ATOM      9  C6  <0> d          48.364  48.475  46.596  0.00  0.00     0.238 C 
ATOM     10  C5  <0> d          46.861  48.213  46.459  0.00  0.00     0.040 C 
ATOM     11  C4  <0> d          46.603  46.707  46.577  0.00  0.00     0.036 C 
ATOM     12  C3  <0> d          47.420  45.973  45.511  0.00  0.00     0.154 C 
ATOM     13  O1  <0> d          48.805  46.284  45.675  0.00  0.00    -0.352 OA
ATOM     14  N3  <0> d          48.623  49.910  46.386  0.00  0.00    -0.070 N 
ATOM     15  H28 <0> d          48.867  50.081  45.413  0.00  0.00     0.274 HD
ATOM     16  H29 <0> d          47.795  50.453  46.628  0.00  0.00     0.274 HD
ATOM     17  H35 <0> d          49.403  50.203  46.985  0.00  0.00     0.274 HD
ATOM     18  C2  <0> d          47.214  44.464  45.660  0.00  0.00     0.208 C 
ATOM     19  C1  <0> d          47.630  43.763  44.365  0.00  0.00     0.042 C 
ATOM     20  N4  <0> d          45.797  44.199  45.955  0.00  0.00    -0.073 N 
ATOM     21  H30 <0> d          45.396  44.976  46.480  0.00  0.00     0.274 HD
ATOM     22  H31 <0> d          45.276  44.071  45.089  0.00  0.00     0.274 HD
ATOM     23  H36 <0> d          45.723  43.343  46.518  0.00  0.00     0.274 HD
ATOM     24  O3  <0> d          48.264  47.494  41.511  0.00  0.00    -0.391 OA
ATOM     25  H18 <0> d          47.520  46.930  41.765  0.00  0.00     0.210 HD
ATOM     26  N2  <0> d          48.608  49.894  42.012  0.00  0.00    -0.070 N 
ATOM     27  H26 <0> d          47.838  49.387  42.447  0.00  0.00     0.274 HD
ATOM     28  H27 <0> d          48.429  50.896  42.068  0.00  0.00     0.274 HD
ATOM     29  H34 <0> d          48.672  49.621  41.024  0.00  0.00     0.274 HD
ATOM     30  N1  <0> d          50.358  46.244  40.046  0.00  0.00    -0.070 N 
ATOM     31  C14 <0> d          51.503  46.181  39.119  0.00  0.00     0.267 C 
ATOM     32  H32 <0> d          49.522  46.546  39.531  0.00  0.00     0.277 HD
ATOM     33  H33 <0> d          50.195  45.313  40.448  0.00  0.00     0.277 HD
ATOM     34  O5  <0> d          51.108  50.930  41.118  0.00  0.00    -0.391 OA
ATOM     35  H25 <0> d          52.006  51.195  40.880  0.00  0.00     0.210 HD
ATOM     36  O4  <0> d          49.502  48.950  39.902  0.00  0.00    -0.386 OA
ATOM     37  C15 <0> d          49.650  49.361  38.542  0.00  0.00     0.202 C 
ENDMDL
MODEL 9
REMARK VINA RESULT:      -6.4      3.174      5.161
ATOM      1  C8  <0> d          49.559  48.986  41.431  0.00  0.00     0.188 C 
ATOM      2  C9  <0> d          50.440  49.586  42.530  0.00  0.00     0.246 C 
ATOM      3  C10 <0> d          49.962  49.088  43.895  0.00  0.00     0.182 C 
ATOM      4  C11 <0> d          50.055  47.563  43.943  0.00  0.00     0.184 C 
ATOM      5  C12 <0> d          49.174  46.962  42.845  0.00  0.00     0.247 C 
ATOM      6  C13 <0> d          49.653  47.460  41.480  0.00  0.00     0.182 C 
ATOM      7  O2  <0> d          50.006  49.450  40.155  0.00  0.00    -0.349 OA
ATOM      8  C7  <0> d          49.003  49.409  39.137  0.00  0.00     0.291 C 
ATOM      9  C6  <0> d          48.782  50.819  38.582  0.00  0.00     0.238 C 
ATOM     10  C5  <0> d          50.080  51.313  37.935  0.00  0.00     0.040 C 
ATOM     11  C4  <0> d          50.508  50.321  36.850  0.00  0.00     0.036 C 
ATOM     12  C3  <0> d          50.662  48.930  37.473  0.00  0.00     0.154 C 
ATOM     13  O1  <0> d          49.429  48.544  38.084  0.00  0.00    -0.352 OA
ATOM     14  N3  <0> d          48.423  51.721  39.689  0.00  0.00    -0.070 N 
ATOM     15  H28 <0> d          48.744  51.331  40.574  0.00  0.00     0.274 HD
ATOM     16  H29 <0> d          48.849  52.635  39.548  0.00  0.00     0.274 HD
ATOM     17  H35 <0> d          47.402  51.827  39.720  0.00  0.00     0.274 HD
ATOM     18  C2  <0> d          51.031  47.921  36.384  0.00  0.00     0.208 C 
ATOM     19  C1  <0> d          49.882  46.927  36.201  0.00  0.00     0.042 C 
ATOM     20  N4  <0> d          52.262  47.216  36.779  0.00  0.00    -0.073 N 
ATOM     21  H30 <0> d          52.055  46.525  37.499  0.00  0.00     0.274 HD
ATOM     22  H31 <0> d          52.675  46.751  35.972  0.00  0.00     0.274 HD
ATOM     23  H36 <0> d          52.935  47.896  37.152  0.00  0.00     0.274 HD
ATOM     24  O3  <0> d          51.008  47.058  41.275  0.00  0.00    -0.391 OA
ATOM     25  H18 <0> d          51.322  47.181  40.368  0.00  0.00     0.210 HD
ATOM     26  N2  <0> d          51.831  49.147  42.318  0.00  0.00    -0.070 N 
ATOM     27  H26 <0> d          52.001  48.271  42.810  0.00  0.00     0.274 HD
ATOM     28  H27 <0> d          52.009  49.017  41.323  0.00  0.00     0.274 HD
ATOM     29  H34 <0> d          52.471  49.864  42.681  0.00  0.00     0.274 HD
ATOM     30  N1  <0> d          49.272  45.491  42.895  0.00  0.00    -0.070 N 
ATOM     31  C14 <0> d          48.588  44.974  44.095  0.00  0.00     0.267 C 
ATOM     32  H32 <0> d          50.262  45.219  42.925  0.00  0.00     0.277 HD
ATOM     33  H33 <0> d          48.832  45.093  42.056  0.00  0.00     0.277 HD
ATOM     34  O5  <0> d          50.785  49.648  44.921  0.00  0.00    -0.391 OA
ATOM     35  H25 <0> d          51.179  48.993  45.511  0.00  0.00     0.210 HD
ATOM     36  O4  <0> d          51.412  47.161  43.738  0.00  0.00    -0.386 OA
ATOM     37  C15 <0> d          52.023  46.569  44.886  0.00  0.00     0.202 C 
ENDMDL
MODEL 10
REMARK VINA RESULT:      -6.3      3.085      5.284
ATOM      1  C8  <0> d          49.421  49.755  40.669  0.00  0.00     0.188 C 
ATOM      2  C9  <0> d          48.929  51.068  41.282  0.00  0.00     0.246 C 
ATOM      3  C10 <0> d          47.835  50.773  42.309  0.00  0.00     0.182 C 
ATOM      4  C11 <0> d          48.399  49.875  43.411  0.00  0.00     0.184 C 
ATOM      5  C12 <0> d          48.890  48.561  42.798  0.00  0.00     0.247 C 
ATOM      6  C13 <0> d          49.985  48.857  41.771  0.00  0.00     0.182 C 
ATOM      7  O2  <0> d          50.444  50.031  39.709  0.00  0.00    -0.349 OA
ATOM      8  C7  <0> d          49.961  50.193  38.373  0.00  0.00     0.291 C 
ATOM      9  C6  <0> d          51.005  50.941  37.540  0.00  0.00     0.238 C 
ATOM     10  C5  <0> d          52.286  50.102  37.472  0.00  0.00     0.040 C 
ATOM     11  C4  <0> d          51.952  48.725  36.889  0.00  0.00     0.036 C 
ATOM     12  C3  <0> d          50.871  48.065  37.748  0.00  0.00     0.154 C 
ATOM     13  O1  <0> d          49.719  48.910  37.795  0.00  0.00    -0.352 OA
ATOM     14  N3  <0> d          51.308  52.227  38.189  0.00  0.00    -0.070 N 
ATOM     15  H28 <0> d          52.176  52.609  37.818  0.00  0.00     0.274 HD
ATOM     16  H29 <0> d          50.550  52.888  38.025  0.00  0.00     0.274 HD
ATOM     17  H35 <0> d          51.411  52.079  39.200  0.00  0.00     0.274 HD
ATOM     18  C2  <0> d          50.489  46.714  37.138  0.00  0.00     0.208 C 
ATOM     19  C1  <0> d          50.004  46.924  35.701  0.00  0.00     0.042 C 
ATOM     20  N4  <0> d          49.427  46.102  37.954  0.00  0.00    -0.073 N 
ATOM     21  H30 <0> d          48.522  46.226  37.502  0.00  0.00     0.274 HD
ATOM     22  H31 <0> d          49.610  45.108  38.079  0.00  0.00     0.274 HD
ATOM     23  H36 <0> d          49.405  46.556  38.875  0.00  0.00     0.274 HD
ATOM     24  O3  <0> d          51.075  49.519  42.414  0.00  0.00    -0.391 OA
ATOM     25  H18 <0> d          51.402  49.064  43.203  0.00  0.00     0.210 HD
ATOM     26  N2  <0> d          50.058  51.730  41.959  0.00  0.00    -0.070 N 
ATOM     27  H26 <0> d          50.152  52.690  41.627  0.00  0.00     0.274 HD
ATOM     28  H27 <0> d          49.909  51.734  42.967  0.00  0.00     0.274 HD
ATOM     29  H34 <0> d          50.925  51.219  41.752  0.00  0.00     0.274 HD
ATOM     30  N1  <0> d          49.436  47.702  43.866  0.00  0.00    -0.070 N 
ATOM     31  C14 <0> d          49.576  46.315  43.385  0.00  0.00     0.267 C 
ATOM     32  H32 <0> d          48.800  47.719  44.672  0.00  0.00     0.277 HD
ATOM     33  H33 <0> d          50.358  48.057  44.150  0.00  0.00     0.277 HD
ATOM     34  O5  <0> d          47.376  51.999  42.882  0.00  0.00    -0.391 OA
ATOM     35  H25 <0> d          47.376  52.007  43.848  0.00  0.00     0.210 HD
ATOM     36  O4  <0> d          49.490  50.537  44.055  0.00  0.00    -0.386 OA
ATOM     37  C15 <0> d          49.283  50.779  45.448  0.00  0.00     0.202 C 
ENDMDL
MODEL 1
REMARK VINA RESULT:      -6.9      0.000      0.000
ATOM      1  C8  <0> d          50.472  47.746  41.619  0.00  0.00     0.188 C 
ATOM      2  C9  <0> d          51.050  46.600  42.451  0.00  0.00     0.246 C 
ATOM      3  C10 <0> d          51.604  47.155  43.766  0.00  0.00     0.182 C 
ATOM      4  C11 <0> d          50.479  47.837  44.546  0.00  0.00     0.184 C 
ATOM      5  C12 <0> d          49.902  48.982  43.713  0.00  0.00     0.247 C 
ATOM      6  C13 <0> d          49.347  48.428  42.399  0.00  0.00     0.182 C 
ATOM      7  O2  <0> d          49.955  47.229  40.390  0.00  0.00    -0.349 OA
ATOM      8  C7  <0> d          50.841  47.374  39.279  0.00  0.00     0.291 C 
ATOM      9  C6  <0> d          50.725  46.147  38.370  0.00  0.00     0.238 C 
ATOM     10  C5  <0> d          49.298  46.064  37.818  0.00  0.00     0.040 C 
ATOM     11  C4  <0> d          48.969  47.367  37.082  0.00  0.00     0.036 C 
ATOM     12  C3  <0> d          49.153  48.546  38.042  0.00  0.00     0.154 C 
ATOM     13  O1  <0> d          50.492  48.547  38.541  0.00  0.00    -0.352 OA
ATOM     14  N3  <0> d          51.007  44.936  39.159  0.00  0.00    -0.070 N 
ATOM     15  H28 <0> d          51.945  44.988  39.554  0.00  0.00     0.274 HD
ATOM     16  H29 <0> d          50.326  44.842  39.910  0.00  0.00     0.274 HD
ATOM     17  H35 <0> d          50.946  44.113  38.547  0.00  0.00     0.274 HD
ATOM     18  C2  <0> d          48.885  49.855  37.298  0.00  0.00     0.208 C 
ATOM     19  C1  <0> d          49.999  50.100  36.278  0.00  0.00     0.042 C 
ATOM     20  N4  <0> d          48.830  50.959  38.272  0.00  0.00    -0.073 N 
ATOM     21  H30 <0> d          48.120  50.767  38.978  0.00  0.00     0.274 HD
ATOM     22  H31 <0> d          49.736  51.071  38.725  0.00  0.00     0.274 HD
ATOM     23  H36 <0> d          48.590  51.829  37.783  0.00  0.00     0.274 HD
ATOM     24  O3  <0> d          48.318  47.478  42.680  0.00  0.00    -0.391 OA
ATOM     25  H18 <0> d          48.384  47.073  43.556  0.00  0.00     0.210 HD
ATOM     26  N2  <0> d          49.974  45.638  42.751  0.00  0.00    -0.070 N 
ATOM     27  H26 <0> d          50.373  44.740  43.017  0.00  0.00     0.274 HD
ATOM     28  H27 <0> d          49.394  45.990  43.510  0.00  0.00     0.274 HD
ATOM     29  H34 <0> d          49.391  45.512  41.914  0.00  0.00     0.274 HD
ATOM     30  N1  <0> d          48.815  49.632  44.470  0.00  0.00    -0.070 N 
ATOM     31  C14 <0> d          49.368  50.418  45.587  0.00  0.00     0.267 C 
ATOM     32  H32 <0> d          48.184  48.912  44.842  0.00  0.00     0.277 HD
ATOM     33  H33 <0> d          48.291  50.254  43.843  0.00  0.00     0.277 HD
ATOM     34  O5  <0> d          52.144  46.085  44.544  0.00  0.00    -0.391 OA
ATOM     35  H25 <0> d          53.039  45.825  44.291  0.00  0.00     0.210 HD
ATOM     36  O4  <0> d          49.450  46.885  44.827  0.00  0.00    -0.386 OA
ATOM     37  C15 <0> d          49.265  46.623  46.219  0.00  0.00     0.202 C 
ENDMDL
MODEL 2
REMARK VINA RESULT:      -6.9      2.795      3.645
ATOM      1  C8  <0> d          49.801  48.283  44.555  0.00  0.00     0.188 C 
ATOM      2  C9  <0> d          49.596  47.293  45.703  0.00  0.00     0.246 C 
ATOM      3  C10 <0> d          48.976  48.021  46.899  0.00  0.00     0.182 C 
ATOM      4  C11 <0> d          47.628  48.617  46.489  0.00  0.00     0.184 C 
ATOM      5  C12 <0> d          47.834  49.606  45.341  0.00  0.00     0.247 C 
ATOM      6  C13 <0> d          48.454  48.878  44.146  0.00  0.00     0.182 C 
ATOM      7  O2  <0> d          50.381  47.603  43.439  0.00  0.00    -0.349 OA
ATOM      8  C7  <0> d          51.748  47.940  43.198  0.00  0.00     0.291 C 
ATOM      9  C6  <0> d          52.441  46.779  42.479  0.00  0.00     0.238 C 
ATOM     10  C5  <0> d          51.771  46.559  41.118  0.00  0.00     0.040 C 
ATOM     11  C4  <0> d          51.832  47.862  40.314  0.00  0.00     0.036 C 
ATOM     12  C3  <0> d          51.162  48.980  41.118  0.00  0.00     0.154 C 
ATOM     13  O1  <0> d          51.815  49.111  42.383  0.00  0.00    -0.352 OA
ATOM     14  N3  <0> d          52.297  45.557  43.289  0.00  0.00    -0.070 N 
ATOM     15  H28 <0> d          51.321  45.267  43.312  0.00  0.00     0.274 HD
ATOM     16  H29 <0> d          52.865  44.809  42.896  0.00  0.00     0.274 HD
ATOM     17  H35 <0> d          52.613  45.748  44.247  0.00  0.00     0.274 HD
ATOM     18  C2  <0> d          51.273  50.297  40.348  0.00  0.00     0.208 C 
ATOM     19  C1  <0> d          52.731  50.535  39.949  0.00  0.00     0.042 C 
ATOM     20  N4  <0> d          50.790  51.396  41.203  0.00  0.00    -0.073 N 
ATOM     21  H30 <0> d          51.129  52.289  40.848  0.00  0.00     0.274 HD
ATOM     22  H31 <0> d          49.770  51.403  41.220  0.00  0.00     0.274 HD
ATOM     23  H36 <0> d          51.140  51.259  42.158  0.00  0.00     0.274 HD
ATOM     24  O3  <0> d          47.579  47.831  43.721  0.00  0.00    -0.391 OA
ATOM     25  H18 <0> d          47.697  47.569  42.797  0.00  0.00     0.210 HD
ATOM     26  N2  <0> d          48.676  46.230  45.258  0.00  0.00    -0.070 N 
ATOM     27  H26 <0> d          48.361  45.684  46.058  0.00  0.00     0.274 HD
ATOM     28  H27 <0> d          47.871  46.640  44.789  0.00  0.00     0.274 HD
ATOM     29  H34 <0> d          49.168  45.611  44.602  0.00  0.00     0.274 HD
ATOM     30  N1  <0> d          46.529  50.173  44.949  0.00  0.00    -0.070 N 
ATOM     31  C14 <0> d          46.606  51.643  44.893  0.00  0.00     0.267 C 
ATOM     32  H32 <0> d          45.820  49.897  45.638  0.00  0.00     0.277 HD
ATOM     33  H33 <0> d          46.267  49.811  44.024  0.00  0.00     0.277 HD
ATOM     34  O5  <0> d          48.783  47.097  47.971  0.00  0.00    -0.391 OA
ATOM     35  H25 <0> d          48.662  47.514  48.834  0.00  0.00     0.210 HD
ATOM     36  O4  <0> d          46.753  47.569  46.065  0.00  0.00    -0.386 OA
ATOM     37  C15 <0> d          45.527  47.503  46.793  0.00  0.00     0.202 C 
ENDMDL
MODEL 3
REMARK VINA RESULT:      -6.8      1.818      1.967
ATOM      1  C8  <0> d          50.568  47.877  42.211  0.00  0.00     0.188 C 
ATOM      2  C9  <0> d          51.466  46.857  42.914  0.00  0.00     0.246 C 
ATOM      3  C10 <0> d          51.509  47.166  44.413  0.00  0.00     0.182 C 
ATOM      4  C11 <0> d          50.094  47.086  44.990  0.00  0.00     0.184 C 
ATOM      5  C12 <0> d          49.198  48.106  44.286  0.00  0.00     0.247 C 
ATOM      6  C13 <0> d          49.154  47.798  42.787  0.00  0.00     0.182 C 
ATOM      7  O2  <0> d          50.528  47.590  40.810  0.00  0.00    -0.349 OA
ATOM      8  C7  <0> d          51.816  47.439  40.211  0.00  0.00     0.291 C 
ATOM      9  C6  <0> d          51.696  46.570  38.955  0.00  0.00     0.238 C 
ATOM     10  C5  <0> d          50.791  47.276  37.940  0.00  0.00     0.040 C 
ATOM     11  C4  <0> d          51.368  48.663  37.635  0.00  0.00     0.036 C 
ATOM     12  C3  <0> d          51.500  49.449  38.943  0.00  0.00     0.154 C 
ATOM     13  O1  <0> d          52.329  48.723  39.852  0.00  0.00    -0.352 OA
ATOM     14  N3  <0> d          51.091  45.277  39.321  0.00  0.00    -0.070 N 
ATOM     15  H28 <0> d          51.761  44.525  39.172  0.00  0.00     0.274 HD
ATOM     16  H29 <0> d          50.804  45.290  40.298  0.00  0.00     0.274 HD
ATOM     17  H35 <0> d          50.266  45.112  38.732  0.00  0.00     0.274 HD
ATOM     18  C2  <0> d          52.132  50.813  38.654  0.00  0.00     0.208 C 
ATOM     19  C1  <0> d          53.229  51.095  39.683  0.00  0.00     0.042 C 
ATOM     20  N4  <0> d          51.087  51.850  38.722  0.00  0.00    -0.073 N 
ATOM     21  H30 <0> d          51.404  52.696  38.250  0.00  0.00     0.274 HD
ATOM     22  H31 <0> d          50.233  51.515  38.278  0.00  0.00     0.274 HD
ATOM     23  H36 <0> d          50.891  52.067  39.706  0.00  0.00     0.274 HD
ATOM     24  O3  <0> d          48.630  46.484  42.587  0.00  0.00    -0.391 OA
ATOM     25  H18 <0> d          48.860  46.094  41.732  0.00  0.00     0.210 HD
ATOM     26  N2  <0> d          50.903  45.510  42.716  0.00  0.00    -0.070 N 
ATOM     27  H26 <0> d          51.530  44.809  43.106  0.00  0.00     0.274 HD
ATOM     28  H27 <0> d          49.994  45.441  43.171  0.00  0.00     0.274 HD
ATOM     29  H34 <0> d          50.789  45.336  41.711  0.00  0.00     0.274 HD
ATOM     30  N1  <0> d          47.835  48.021  44.845  0.00  0.00    -0.070 N 
ATOM     31  C14 <0> d          47.005  49.129  44.340  0.00  0.00     0.267 C 
ATOM     32  H32 <0> d          47.886  48.075  45.869  0.00  0.00     0.277 HD
ATOM     33  H33 <0> d          47.412  47.126  44.571  0.00  0.00     0.277 HD
ATOM     34  O5  <0> d          52.346  46.213  45.071  0.00  0.00    -0.391 OA
ATOM     35  H25 <0> d          52.285  45.319  44.711  0.00  0.00     0.210 HD
ATOM     36  O4  <0> d          49.571  45.771  44.790  0.00  0.00    -0.386 OA
ATOM     37  C15 <0> d          49.034  45.173  45.970  0.00  0.00     0.202 C 
ENDMDL
MODEL 4
REMARK VINA RESULT:      -6.6      1.907      3.439
ATOM      1  C8  <0> d          50.151  47.986  43.743  0.00  0.00     0.188 C 
ATOM      2  C9  <0> d          51.015  46.882  44.355  0.00  0.00     0.246 C 
ATOM      3  C10 <0> d          50.524  46.578  45.772  0.00  0.00     0.182 C 
ATOM      4  C11 <0> d          49.066  46.117  45.718  0.00  0.00     0.184 C 
ATOM      5  C12 <0> d          48.204  47.221  45.106  0.00  0.00     0.247 C 
ATOM      6  C13 <0> d          48.694  47.525  43.689  0.00  0.00     0.182 C 
ATOM      7  O2  <0> d          50.610  48.271  42.419  0.00  0.00    -0.349 OA
ATOM      8  C7  <0> d          49.592  48.756  41.542  0.00  0.00     0.291 C 
ATOM      9  C6  <0> d          49.967  50.156  41.049  0.00  0.00     0.238 C 
ATOM     10  C5  <0> d          51.270  50.074  40.247  0.00  0.00     0.040 C 
ATOM     11  C4  <0> d          51.086  49.082  39.094  0.00  0.00     0.036 C 
ATOM     12  C3  <0> d          50.668  47.724  39.664  0.00  0.00     0.154 C 
ATOM     13  O1  <0> d          49.467  47.877  40.423  0.00  0.00    -0.352 OA
ATOM     14  N3  <0> d          50.174  51.036  42.213  0.00  0.00    -0.070 N 
ATOM     15  H28 <0> d          49.526  51.822  42.174  0.00  0.00     0.274 HD
ATOM     16  H29 <0> d          50.025  50.516  43.075  0.00  0.00     0.274 HD
ATOM     17  H35 <0> d          51.136  51.394  42.199  0.00  0.00     0.274 HD
ATOM     18  C2  <0> d          50.424  46.743  38.514  0.00  0.00     0.208 C 
ATOM     19  C1  <0> d          48.972  46.858  38.045  0.00  0.00     0.042 C 
ATOM     20  N4  <0> d          50.704  45.375  38.983  0.00  0.00    -0.073 N 
ATOM     21  H30 <0> d          50.672  45.341  40.001  0.00  0.00     0.274 HD
ATOM     22  H31 <0> d          50.016  44.726  38.601  0.00  0.00     0.274 HD
ATOM     23  H36 <0> d          51.640  45.095  38.668  0.00  0.00     0.274 HD
ATOM     24  O3  <0> d          48.596  46.346  42.889  0.00  0.00    -0.391 OA
ATOM     25  H18 <0> d          49.137  45.609  43.205  0.00  0.00     0.210 HD
ATOM     26  N2  <0> d          50.889  45.666  43.531  0.00  0.00    -0.070 N 
ATOM     27  H26 <0> d          51.810  45.272  43.347  0.00  0.00     0.274 HD
ATOM     28  H27 <0> d          50.315  44.976  44.014  0.00  0.00     0.274 HD
ATOM     29  H34 <0> d          50.443  45.908  42.638  0.00  0.00     0.274 HD
ATOM     30  N1  <0> d          46.800  46.768  45.054  0.00  0.00    -0.070 N 
ATOM     31  C14 <0> d          46.179  46.873  46.386  0.00  0.00     0.267 C 
ATOM     32  H32 <0> d          46.773  45.789  44.743  0.00  0.00     0.277 HD
ATOM     33  H33 <0> d          46.280  47.352  44.389  0.00  0.00     0.277 HD
ATOM     34  O5  <0> d          51.330  45.546  46.344  0.00  0.00    -0.391 OA
ATOM     35  H25 <0> d          51.231  45.453  47.301  0.00  0.00     0.210 HD
ATOM     36  O4  <0> d          48.969  44.936  44.918  0.00  0.00    -0.386 OA
ATOM     37  C15 <0> d          48.272  43.862  45.548  0.00  0.00     0.202 C 
ENDMDL
MODEL 5
REMARK VINA RESULT:      -6.6      2.961      6.524
ATOM      1  C8  <0> d          50.253  47.857  45.266  0.00  0.00     0.188 C 
ATOM      2  C9  <0> d          51.408  48.326  44.380  0.00  0.00     0.246 C 
ATOM      3  C10 <0> d          52.133  47.108  43.802  0.00  0.00     0.182 C 
ATOM      4  C11 <0> d          51.153  46.280  42.968  0.00  0.00     0.184 C 
ATOM      5  C12 <0> d          49.998  45.812  43.854  0.00  0.00     0.247 C 
ATOM      6  C13 <0> d          49.273  47.030  44.433  0.00  0.00     0.182 C 
ATOM      7  O2  <0> d          49.576  48.994  45.807  0.00  0.00    -0.349 OA
ATOM      8  C7  <0> d          48.189  48.775  46.071  0.00  0.00     0.291 C 
ATOM      9  C6  <0> d          47.911  49.002  47.560  0.00  0.00     0.238 C 
ATOM     10  C5  <0> d          48.226  50.459  47.913  0.00  0.00     0.040 C 
ATOM     11  C4  <0> d          47.392  51.382  47.018  0.00  0.00     0.036 C 
ATOM     12  C3  <0> d          47.691  51.062  45.551  0.00  0.00     0.154 C 
ATOM     13  O1  <0> d          47.406  49.685  45.298  0.00  0.00    -0.352 OA
ATOM     14  N3  <0> d          48.781  48.116  48.352  0.00  0.00    -0.070 N 
ATOM     15  H28 <0> d          48.234  47.354  48.749  0.00  0.00     0.274 HD
ATOM     16  H29 <0> d          49.519  47.734  47.764  0.00  0.00     0.274 HD
ATOM     17  H35 <0> d          49.208  48.655  49.115  0.00  0.00     0.274 HD
ATOM     18  C2  <0> d          46.818  51.939  44.651  0.00  0.00     0.208 C 
ATOM     19  C1  <0> d          45.498  52.244  45.362  0.00  0.00     0.042 C 
ATOM     20  N4  <0> d          46.567  51.228  43.385  0.00  0.00    -0.073 N 
ATOM     21  H30 <0> d          46.410  51.898  42.633  0.00  0.00     0.274 HD
ATOM     22  H31 <0> d          47.365  50.638  43.151  0.00  0.00     0.274 HD
ATOM     23  H36 <0> d          45.733  50.639  43.489  0.00  0.00     0.274 HD
ATOM     24  O3  <0> d          48.761  47.829  43.366  0.00  0.00    -0.391 OA
ATOM     25  H18 <0> d          48.218  47.340  42.732  0.00  0.00     0.210 HD
ATOM     26  N2  <0> d          50.864  49.132  43.273  0.00  0.00    -0.070 N 
ATOM     27  H26 <0> d          50.694  48.541  42.462  0.00  0.00     0.274 HD
ATOM     28  H27 <0> d          49.992  49.574  43.560  0.00  0.00     0.274 HD
ATOM     29  H34 <0> d          51.542  49.861  43.021  0.00  0.00     0.274 HD
ATOM     30  N1  <0> d          49.055  45.018  43.043  0.00  0.00    -0.070 N 
ATOM     31  C14 <0> d          48.073  44.345  43.912  0.00  0.00     0.267 C 
ATOM     32  H32 <0> d          49.578  44.312  42.512  0.00  0.00     0.277 HD
ATOM     33  H33 <0> d          48.562  45.640  42.392  0.00  0.00     0.277 HD
ATOM     34  O5  <0> d          53.212  47.545  42.974  0.00  0.00    -0.391 OA
ATOM     35  H25 <0> d          53.224  48.498  42.812  0.00  0.00     0.210 HD
ATOM     36  O4  <0> d          50.641  47.081  41.900  0.00  0.00    -0.386 OA
ATOM     37  C15 <0> d          51.010  46.621  40.600  0.00  0.00     0.202 C 
ENDMDL
MODEL 6
REMARK VINA RESULT:      -6.5      3.276      4.796
ATOM      1  C8  <0> d          49.293  50.412  40.400  0.00  0.00     0.188 C 
ATOM      2  C9  <0> d          47.791  50.411  40.692  0.00  0.00     0.246 C 
ATOM      3  C10 <0> d          47.457  49.257  41.640  0.00  0.00     0.182 C 
ATOM      4  C11 <0> d          48.233  49.431  42.947  0.00  0.00     0.184 C 
ATOM      5  C12 <0> d          49.734  49.431  42.654  0.00  0.00     0.247 C 
ATOM      6  C13 <0> d          50.068  50.586  41.706  0.00  0.00     0.182 C 
ATOM      7  O2  <0> d          49.605  51.490  39.514  0.00  0.00    -0.349 OA
ATOM      8  C7  <0> d          49.134  51.299  38.178  0.00  0.00     0.291 C 
ATOM      9  C6  <0> d          49.044  52.655  37.471  0.00  0.00     0.238 C 
ATOM     10  C5  <0> d          50.444  53.272  37.387  0.00  0.00     0.040 C 
ATOM     11  C4  <0> d          51.377  52.298  36.661  0.00  0.00     0.036 C 
ATOM     12  C3  <0> d          51.377  50.958  37.400  0.00  0.00     0.154 C 
ATOM     13  O1  <0> d          50.042  50.454  37.469  0.00  0.00    -0.352 OA
ATOM     14  N3  <0> d          48.170  53.547  38.252  0.00  0.00    -0.070 N 
ATOM     15  H28 <0> d          48.456  53.545  39.230  0.00  0.00     0.274 HD
ATOM     16  H29 <0> d          48.221  54.495  37.885  0.00  0.00     0.274 HD
ATOM     17  H35 <0> d          47.201  53.215  38.186  0.00  0.00     0.274 HD
ATOM     18  C2  <0> d          52.261  49.961  36.647  0.00  0.00     0.208 C 
ATOM     19  C1  <0> d          51.966  50.049  35.148  0.00  0.00     0.042 C 
ATOM     20  N4  <0> d          51.984  48.602  37.145  0.00  0.00    -0.073 N 
ATOM     21  H30 <0> d          51.652  48.012  36.382  0.00  0.00     0.274 HD
ATOM     22  H31 <0> d          52.830  48.196  37.543  0.00  0.00     0.274 HD
ATOM     23  H36 <0> d          51.261  48.650  37.871  0.00  0.00     0.274 HD
ATOM     24  O3  <0> d          49.701  51.823  42.317  0.00  0.00    -0.391 OA
ATOM     25  H18 <0> d          48.766  51.883  42.559  0.00  0.00     0.210 HD
ATOM     26  N2  <0> d          47.431  51.685  41.340  0.00  0.00    -0.070 N 
ATOM     27  H26 <0> d          48.139  52.389  41.143  0.00  0.00     0.274 HD
ATOM     28  H27 <0> d          46.527  52.007  40.996  0.00  0.00     0.274 HD
ATOM     29  H34 <0> d          47.372  51.543  42.356  0.00  0.00     0.274 HD
ATOM     30  N1  <0> d          50.475  49.604  43.919  0.00  0.00    -0.070 N 
ATOM     31  C14 <0> d          50.523  48.332  44.661  0.00  0.00     0.267 C 
ATOM     32  H32 <0> d          50.004  50.313  44.492  0.00  0.00     0.277 HD
ATOM     33  H33 <0> d          51.432  49.912  43.711  0.00  0.00     0.277 HD
ATOM     34  O5  <0> d          46.055  49.256  41.914  0.00  0.00    -0.391 OA
ATOM     35  H25 <0> d          45.567  49.966  41.477  0.00  0.00     0.210 HD
ATOM     36  O4  <0> d          47.865  50.669  43.558  0.00  0.00    -0.386 OA
ATOM     37  C15 <0> d          47.251  50.527  44.839  0.00  0.00     0.202 C 
ENDMDL
MODEL 7
REMARK VINA RESULT:      -6.5      2.010      2.430
ATOM      1  C8  <0> d          50.590  48.507  40.115  0.00  0.00     0.188 C 
ATOM      2  C9  <0> d          51.371  47.297  40.631  0.00  0.00     0.246 C 
ATOM      3  C10 <0> d          51.543  47.411  42.147  0.00  0.00     0.182 C 
ATOM      4  C11 <0> d          50.166  47.454  42.814  0.00  0.00     0.184 C 
ATOM      5  C12 <0> d          49.386  48.664  42.298  0.00  0.00     0.247 C 
ATOM      6  C13 <0> d          49.215  48.551  40.781  0.00  0.00     0.182 C 
ATOM      7  O2  <0> d          50.430  48.402  38.698  0.00  0.00    -0.349 OA
ATOM      8  C7  <0> d          51.585  48.791  37.951  0.00  0.00     0.291 C 
ATOM      9  C6  <0> d          51.637  47.998  36.642  0.00  0.00     0.238 C 
ATOM     10  C5  <0> d          50.403  48.338  35.800  0.00  0.00     0.040 C 
ATOM     11  C4  <0> d          50.360  49.851  35.562  0.00  0.00     0.036 C 
ATOM     12  C3  <0> d          50.358  50.571  36.914  0.00  0.00     0.154 C 
ATOM     13  O1  <0> d          51.516  50.187  37.658  0.00  0.00    -0.352 OA
ATOM     14  N3  <0> d          51.626  46.557  36.951  0.00  0.00    -0.070 N 
ATOM     15  H28 <0> d          51.248  46.405  37.885  0.00  0.00     0.274 HD
ATOM     16  H29 <0> d          51.059  46.058  36.269  0.00  0.00     0.274 HD
ATOM     17  H35 <0> d          52.587  46.197  36.916  0.00  0.00     0.274 HD
ATOM     18  C2  <0> d          50.376  52.084  36.685  0.00  0.00     0.208 C 
ATOM     19  C1  <0> d          51.503  52.710  37.510  0.00  0.00     0.042 C 
ATOM     20  N4  <0> d          49.074  52.646  37.085  0.00  0.00    -0.073 N 
ATOM     21  H30 <0> d          48.936  52.527  38.088  0.00  0.00     0.274 HD
ATOM     22  H31 <0> d          49.036  53.638  36.854  0.00  0.00     0.274 HD
ATOM     23  H36 <0> d          48.326  52.155  36.583  0.00  0.00     0.274 HD
ATOM     24  O3  <0> d          48.497  47.355  40.473  0.00  0.00    -0.391 OA
ATOM     25  H18 <0> d          49.063  46.597  40.268  0.00  0.00     0.210 HD
ATOM     26  N2  <0> d          50.610  46.072  40.323  0.00  0.00    -0.070 N 
ATOM     27  H26 <0> d          50.390  46.039  39.330  0.00  0.00     0.274 HD
ATOM     28  H27 <0> d          51.155  45.251  40.578  0.00  0.00     0.274 HD
ATOM     29  H34 <0> d          49.735  46.075  40.861  0.00  0.00     0.274 HD
ATOM     30  N1  <0> d          48.059  48.697  42.942  0.00  0.00    -0.070 N 
ATOM     31  C14 <0> d          47.382  49.974  42.654  0.00  0.00     0.267 C 
ATOM     32  H32 <0> d          48.174  48.596  43.957  0.00  0.00     0.277 HD
ATOM     33  H33 <0> d          47.490  47.922  42.583  0.00  0.00     0.277 HD
ATOM     34  O5  <0> d          52.271  46.280  42.630  0.00  0.00    -0.391 OA
ATOM     35  H25 <0> d          53.013  46.020  42.069  0.00  0.00     0.210 HD
ATOM     36  O4  <0> d          49.449  46.257  42.505  0.00  0.00    -0.386 OA
ATOM     37  C15 <0> d          49.113  45.469  43.647  0.00  0.00     0.202 C 
ENDMDL
MODEL 8
REMARK VINA RESULT:      -6.5      2.764      3.906
ATOM      1  C8  <0> d          50.195  49.238  39.626  0.00  0.00     0.188 C 
ATOM      2  C9  <0> d          50.008  49.005  41.126  0.00  0.00     0.246 C 
ATOM      3  C10 <0> d          50.094  50.343  41.864  0.00  0.00     0.182 C 
ATOM      4  C11 <0> d          48.999  51.280  41.351  0.00  0.00     0.184 C 
ATOM      5  C12 <0> d          49.187  51.512  39.852  0.00  0.00     0.247 C 
ATOM      6  C13 <0> d          49.100  50.175  39.113  0.00  0.00     0.182 C 
ATOM      7  O2  <0> d          50.114  47.988  38.936  0.00  0.00    -0.349 OA
ATOM      8  C7  <0> d          51.325  47.607  38.281  0.00  0.00     0.291 C 
ATOM      9  C6  <0> d          51.161  46.207  37.681  0.00  0.00     0.238 C 
ATOM     10  C5  <0> d          50.052  46.239  36.625  0.00  0.00     0.040 C 
ATOM     11  C4  <0> d          50.401  47.289  35.565  0.00  0.00     0.036 C 
ATOM     12  C3  <0> d          50.594  48.646  36.247  0.00  0.00     0.154 C 
ATOM     13  O1  <0> d          51.618  48.538  37.238  0.00  0.00    -0.352 OA
ATOM     14  N3  <0> d          50.780  45.268  38.750  0.00  0.00    -0.070 N 
ATOM     15  H28 <0> d          49.962  44.731  38.467  0.00  0.00     0.274 HD
ATOM     16  H29 <0> d          51.551  44.633  38.949  0.00  0.00     0.274 HD
ATOM     17  H35 <0> d          50.555  45.797  39.601  0.00  0.00     0.274 HD
ATOM     18  C2  <0> d          51.002  49.688  35.203  0.00  0.00     0.208 C 
ATOM     19  C1  <0> d          50.882  49.080  33.804  0.00  0.00     0.042 C 
ATOM     20  N4  <0> d          52.389  50.110  35.462  0.00  0.00    -0.073 N 
ATOM     21  H30 <0> d          53.039  49.484  34.988  0.00  0.00     0.274 HD
ATOM     22  H31 <0> d          52.533  51.062  35.128  0.00  0.00     0.274 HD
ATOM     23  H36 <0> d          52.569  50.078  36.472  0.00  0.00     0.274 HD
ATOM     24  O3  <0> d          47.820  49.585  39.347  0.00  0.00    -0.391 OA
ATOM     25  H18 <0> d          47.337  49.358  38.540  0.00  0.00     0.210 HD
ATOM     26  N2  <0> d          48.676  48.415  41.355  0.00  0.00    -0.070 N 
ATOM     27  H26 <0> d          47.961  48.983  40.904  0.00  0.00     0.274 HD
ATOM     28  H27 <0> d          48.645  47.469  40.979  0.00  0.00     0.274 HD
ATOM     29  H34 <0> d          48.491  48.381  42.364  0.00  0.00     0.274 HD
ATOM     30  N1  <0> d          48.125  52.413  39.364  0.00  0.00    -0.070 N 
ATOM     31  C14 <0> d          48.588  53.155  38.178  0.00  0.00     0.267 C 
ATOM     32  H32 <0> d          47.879  53.079  40.106  0.00  0.00     0.277 HD
ATOM     33  H33 <0> d          47.298  51.858  39.116  0.00  0.00     0.277 HD
ATOM     34  O5  <0> d          49.919  50.126  43.265  0.00  0.00    -0.391 OA
ATOM     35  H25 <0> d          50.743  49.978  43.748  0.00  0.00     0.210 HD
ATOM     36  O4  <0> d          47.719  50.689  41.586  0.00  0.00    -0.386 OA
ATOM     37  C15 <0> d          46.908  51.408  42.517  0.00  0.00     0.202 C 
ENDMDL
MODEL 9
REMARK VINA RESULT:      -6.3      2.810      6.215
ATOM      1  C8  <0> d          49.814  47.504  42.796  0.00  0.00     0.188 C 
ATOM      2  C9  <0> d          51.217  47.169  42.285  0.00  0.00     0.246 C 
ATOM      3  C10 <0> d          51.255  47.324  40.763  0.00  0.00     0.182 C 
ATOM      4  C11 <0> d          50.905  48.766  40.390  0.00  0.00     0.184 C 
ATOM      5  C12 <0> d          49.503  49.100  40.901  0.00  0.00     0.247 C 
ATOM      6  C13 <0> d          49.465  48.945  42.423  0.00  0.00     0.182 C 
ATOM      7  O2  <0> d          49.779  47.358  44.219  0.00  0.00    -0.349 OA
ATOM      8  C7  <0> d          48.892  46.335  44.676  0.00  0.00     0.291 C 
ATOM      9  C6  <0> d          49.221  45.989  46.131  0.00  0.00     0.238 C 
ATOM     10  C5  <0> d          48.994  47.226  47.006  0.00  0.00     0.040 C 
ATOM     11  C4  <0> d          47.548  47.702  46.834  0.00  0.00     0.036 C 
ATOM     12  C3  <0> d          47.285  47.982  45.352  0.00  0.00     0.154 C 
ATOM     13  O1  <0> d          47.544  46.800  44.592  0.00  0.00    -0.352 OA
ATOM     14  N3  <0> d          50.636  45.589  46.222  0.00  0.00    -0.070 N 
ATOM     15  H28 <0> d          50.819  44.809  45.593  0.00  0.00     0.274 HD
ATOM     16  H29 <0> d          51.237  46.372  45.975  0.00  0.00     0.274 HD
ATOM     17  H35 <0> d          50.844  45.298  47.185  0.00  0.00     0.274 HD
ATOM     18  C2  <0> d          45.825  48.400  45.164  0.00  0.00     0.208 C 
ATOM     19  C1  <0> d          45.672  49.885  45.505  0.00  0.00     0.042 C 
ATOM     20  N4  <0> d          44.974  47.582  46.045  0.00  0.00    -0.073 N 
ATOM     21  H30 <0> d          45.109  46.593  45.840  0.00  0.00     0.274 HD
ATOM     22  H31 <0> d          45.208  47.760  47.021  0.00  0.00     0.274 HD
ATOM     23  H36 <0> d          43.990  47.827  45.886  0.00  0.00     0.274 HD
ATOM     24  O3  <0> d          50.412  49.835  43.015  0.00  0.00    -0.391 OA
ATOM     25  H18 <0> d          51.140  50.083  42.428  0.00  0.00     0.210 HD
ATOM     26  N2  <0> d          52.181  48.107  42.889  0.00  0.00    -0.070 N 
ATOM     27  H26 <0> d          52.941  47.591  43.328  0.00  0.00     0.274 HD
ATOM     28  H27 <0> d          52.560  48.725  42.174  0.00  0.00     0.274 HD
ATOM     29  H34 <0> d          51.703  48.671  43.601  0.00  0.00     0.274 HD
ATOM     30  N1  <0> d          49.174  50.493  40.540  0.00  0.00    -0.070 N 
ATOM     31  C14 <0> d          47.740  50.752  40.754  0.00  0.00     0.267 C 
ATOM     32  H32 <0> d          49.403  50.649  39.551  0.00  0.00     0.277 HD
ATOM     33  H33 <0> d          49.726  51.133  41.124  0.00  0.00     0.277 HD
ATOM     34  O5  <0> d          52.565  47.012  40.286  0.00  0.00    -0.391 OA
ATOM     35  H25 <0> d          53.257  47.084  40.956  0.00  0.00     0.210 HD
ATOM     36  O4  <0> d          51.854  49.656  40.982  0.00  0.00    -0.386 OA
ATOM     37  C15 <0> d          52.611  50.413  40.037  0.00  0.00     0.202 C 
ENDMDL
MODEL 10
REMARK VINA RESULT:      -6.3      2.312      6.583
ATOM      1  C8  <0> d          50.369  48.031  42.907  0.00  0.00     0.188 C 
ATOM      2  C9  <0> d          50.525  49.497  42.500  0.00  0.00     0.246 C 
ATOM      3  C10 <0> d          51.328  49.582  41.200  0.00  0.00     0.182 C 
ATOM      4  C11 <0> d          50.592  48.820  40.096  0.00  0.00     0.184 C 
ATOM      5  C12 <0> d          50.436  47.354  40.504  0.00  0.00     0.247 C 
ATOM      6  C13 <0> d          49.633  47.269  41.804  0.00  0.00     0.182 C 
ATOM      7  O2  <0> d          49.619  47.951  44.122  0.00  0.00    -0.349 OA
ATOM      8  C7  <0> d          49.046  46.666  44.369  0.00  0.00     0.291 C 
ATOM      9  C6  <0> d          49.604  46.102  45.679  0.00  0.00     0.238 C 
ATOM     10  C5  <0> d          49.199  47.021  46.835  0.00  0.00     0.040 C 
ATOM     11  C4  <0> d          47.672  47.149  46.861  0.00  0.00     0.036 C 
ATOM     12  C3  <0> d          47.190  47.672  45.506  0.00  0.00     0.154 C 
ATOM     13  O1  <0> d          47.626  46.788  44.472  0.00  0.00    -0.352 OA
ATOM     14  N3  <0> d          51.075  46.056  45.594  0.00  0.00    -0.070 N 
ATOM     15  H28 <0> d          51.454  45.559  46.398  0.00  0.00     0.274 HD
ATOM     16  H29 <0> d          51.361  45.586  44.737  0.00  0.00     0.274 HD
ATOM     17  H35 <0> d          51.443  47.015  45.588  0.00  0.00     0.274 HD
ATOM     18  C2  <0> d          45.661  47.746  45.503  0.00  0.00     0.208 C 
ATOM     19  C1  <0> d          45.221  49.200  45.319  0.00  0.00     0.042 C 
ATOM     20  N4  <0> d          45.152  47.214  46.779  0.00  0.00    -0.073 N 
ATOM     21  H30 <0> d          45.911  47.150  47.457  0.00  0.00     0.274 HD
ATOM     22  H31 <0> d          44.422  47.823  47.145  0.00  0.00     0.274 HD
ATOM     23  H36 <0> d          44.762  46.278  46.623  0.00  0.00     0.274 HD
ATOM     24  O3  <0> d          48.342  47.848  41.604  0.00  0.00    -0.391 OA
ATOM     25  H18 <0> d          47.894  48.104  42.422  0.00  0.00     0.210 HD
ATOM     26  N2  <0> d          49.187  50.076  42.278  0.00  0.00    -0.070 N 
ATOM     27  H26 <0> d          49.226  50.769  41.533  0.00  0.00     0.274 HD
ATOM     28  H27 <0> d          48.528  49.342  42.023  0.00  0.00     0.274 HD
ATOM     29  H34 <0> d          48.867  50.529  43.142  0.00  0.00     0.274 HD
ATOM     30  N1  <0> d          49.722  46.627  39.437  0.00  0.00    -0.070 N 
ATOM     31  C14 <0> d          50.606  46.426  38.275  0.00  0.00     0.267 C 
ATOM     32  H32 <0> d          48.901  47.172  39.147  0.00  0.00     0.277 HD
ATOM     33  H33 <0> d          49.418  45.714  39.794  0.00  0.00     0.277 HD
ATOM     34  O5  <0> d          51.473  50.951  40.819  0.00  0.00    -0.391 OA
ATOM     35  H25 <0> d          52.343  51.325  41.013  0.00  0.00     0.210 HD
ATOM     36  O4  <0> d          49.301  49.400  39.896  0.00  0.00    -0.386 OA
ATOM     37  C15 <0> d          49.100  49.938  38.589  0.00  0.00     0.202 C 
ENDMDL
