MODEL
REMARK VINA RESULT:      -8.5    
REMARK AD4  RESULT:      -7.66   
REMARK FIN. RESULT:      -8.07   
ATOM      1  C1  <0> d          45.390  51.140  44.627  0.00  0.00     0.019 A 
ATOM      2  C2  <0> d          44.170  51.694  44.935  0.00  0.00     0.030 A 
ATOM      3  C3  <0> d          43.107  50.878  45.313  0.00  0.00     0.028 A 
ATOM      4  C4  <0> d          43.276  49.498  45.378  0.00  0.00     0.030 A 
ATOM      5  C5  <0> d          44.494  48.937  45.070  0.00  0.00     0.019 A 
ATOM      6  C6  <0> d          45.563  49.754  44.691  0.00  0.00     0.032 A 
ATOM      7  N2  <0> d          41.876  51.442  45.625  0.00  0.00    -0.384 N 
ATOM      8  H12 <0> d          41.501  51.330  46.512  0.00  0.00     0.160 HD
ATOM      9  C13 <0> d          41.142  52.204  44.611  0.00  0.00     0.180 C 
ATOM     10  C14 <0> d          39.961  51.399  44.133  0.00  0.00     0.070 A 
ATOM     11  N4  <0> d          39.720  51.295  42.843  0.00  0.00    -0.241 NA
ATOM     12  C17 <0> d          38.683  50.581  42.424  0.00  0.00     0.174 A 
ATOM     13  C16 <0> d          37.835  49.946  43.361  0.00  0.00     0.202 A 
ATOM     14  C18 <0> d          38.373  50.429  40.993  0.00  0.00     0.292 A 
ATOM     15  N3  <0> d          38.091  50.067  44.664  0.00  0.00    -0.237 NA
ATOM     16  N6  <0> d          36.786  49.231  42.915  0.00  0.00    -0.043 NA
ATOM     17  C15 <0> d          39.131  50.777  45.060  0.00  0.00     0.147 A 
ATOM     18  C19 <0> d          36.528  49.107  41.636  0.00  0.00     0.703 A 
ATOM     19  N5  <0> d          37.291  49.685  40.664  0.00  0.00    -0.152 N 
ATOM     20  H2  <0> d          37.049  49.558  39.702  0.00  0.00     0.187 HD
ATOM     21  O4  <0> d          39.064  50.950  40.137  0.00  0.00    -0.265 OA
ATOM     22  N7  <0> d          35.441  48.362  41.258  0.00  0.00    -0.233 N 
ATOM     23  H16 <0> d          34.784  48.095  41.918  0.00  0.00     0.174 HD
ATOM     24  H17 <0> d          35.329  48.105  40.331  0.00  0.00     0.174 HD
ATOM     25  C7  <0> d          46.872  49.156  44.366  0.00  0.00     0.252 C 
ATOM     26  O1  <0> d          47.570  49.653  43.504  0.00  0.00    -0.268 OA
ATOM     27  N1  <0> d          47.293  48.057  45.024  0.00  0.00    -0.342 N 
ATOM     28  H7  <0> d          46.735  47.660  45.711  0.00  0.00     0.163 HD
ATOM     29  C8  <0> d          48.592  47.462  44.701  0.00  0.00     0.186 C 
ATOM     30  C9  <0> d          48.482  45.938  44.750  0.00  0.00     0.046 C 
ATOM     31  C10 <0> d          47.245  45.542  45.558  0.00  0.00     0.116 C 
ATOM     32  C11 <0> d          46.918  44.094  45.299  0.00  0.00     0.172 C 
ATOM     33  O2  <0> d          47.646  43.226  45.717  0.00  0.00    -0.648 OA
ATOM     34  O5  <0> d          45.818  43.768  44.601  0.00  0.00    -0.648 OA
ATOM     35  C12 <0> d          49.619  47.925  45.704  0.00  0.00     0.196 C 
ATOM     36  O3  <0> d          50.427  48.768  45.396  0.00  0.00    -0.646 OA
ATOM     37  O6  <0> d          49.635  47.399  46.938  0.00  0.00    -0.646 OA
ENDMDL
MODEL
REMARK VINA RESULT:      -8.8    
REMARK AD4  RESULT:      -7.66   
REMARK FIN. RESULT:      -8.21   
ATOM      1  C1  <0> d          45.568  48.605  45.100  0.00  0.00     0.019 A 
ATOM      2  C2  <0> d          44.372  49.247  45.317  0.00  0.00     0.030 A 
ATOM      3  C3  <0> d          44.240  50.600  45.014  0.00  0.00     0.028 A 
ATOM      4  C4  <0> d          45.319  51.306  44.491  0.00  0.00     0.030 A 
ATOM      5  C5  <0> d          46.520  50.669  44.272  0.00  0.00     0.019 A 
ATOM      6  C6  <0> d          46.654  49.311  44.574  0.00  0.00     0.032 A 
ATOM      7  N2  <0> d          43.030  51.246  45.235  0.00  0.00    -0.384 N 
ATOM      8  H12 <0> d          42.570  51.139  46.082  0.00  0.00     0.160 HD
ATOM      9  C13 <0> d          42.447  52.089  44.187  0.00  0.00     0.180 C 
ATOM     10  C14 <0> d          41.434  51.293  43.407  0.00  0.00     0.070 A 
ATOM     11  N4  <0> d          41.608  49.998  43.239  0.00  0.00    -0.241 NA
ATOM     12  C17 <0> d          40.712  49.298  42.555  0.00  0.00     0.174 A 
ATOM     13  C16 <0> d          39.582  49.943  42.001  0.00  0.00     0.202 A 
ATOM     14  C18 <0> d          40.857  47.848  42.344  0.00  0.00     0.292 A 
ATOM     15  N3  <0> d          39.425  51.255  42.176  0.00  0.00    -0.237 NA
ATOM     16  N6  <0> d          38.687  49.215  41.307  0.00  0.00    -0.043 NA
ATOM     17  C15 <0> d          40.324  51.932  42.863  0.00  0.00     0.147 A 
ATOM     18  C19 <0> d          38.835  47.925  41.131  0.00  0.00     0.703 A 
ATOM     19  N5  <0> d          39.893  47.222  41.629  0.00  0.00    -0.152 N 
ATOM     20  H2  <0> d          39.957  46.237  41.465  0.00  0.00     0.187 HD
ATOM     21  O4  <0> d          41.807  47.235  42.795  0.00  0.00    -0.265 OA
ATOM     22  N7  <0> d          37.882  47.250  40.413  0.00  0.00    -0.233 N 
ATOM     23  H16 <0> d          37.022  47.663  40.242  0.00  0.00     0.174 HD
ATOM     24  H17 <0> d          38.069  46.361  40.076  0.00  0.00     0.174 HD
ATOM     25  C7  <0> d          47.938  48.625  44.335  0.00  0.00     0.252 C 
ATOM     26  O1  <0> d          48.810  49.174  43.690  0.00  0.00    -0.268 OA
ATOM     27  N1  <0> d          48.143  47.388  44.831  0.00  0.00    -0.342 N 
ATOM     28  H7  <0> d          47.447  46.950  45.345  0.00  0.00     0.163 HD
ATOM     29  C8  <0> d          49.418  46.706  44.593  0.00  0.00     0.186 C 
ATOM     30  C9  <0> d          49.151  45.287  44.087  0.00  0.00     0.046 C 
ATOM     31  C10 <0> d          48.447  44.480  45.180  0.00  0.00     0.116 C 
ATOM     32  C11 <0> d          47.051  44.136  44.729  0.00  0.00     0.172 C 
ATOM     33  O2  <0> d          46.133  44.879  44.983  0.00  0.00    -0.648 OA
ATOM     34  O5  <0> d          46.826  43.002  44.045  0.00  0.00    -0.648 OA
ATOM     35  C12 <0> d          50.200  46.641  45.881  0.00  0.00     0.196 C 
ATOM     36  O3  <0> d          51.288  46.117  45.901  0.00  0.00    -0.646 OA
ATOM     37  O6  <0> d          49.687  47.165  47.004  0.00  0.00    -0.646 OA
ENDMDL
