MODEL 1
REMARK VINA RESULT:      -9.6      0.000      0.000
ATOM      1  C1  <0> d          52.107  49.415  40.622  0.00  0.00     0.019 A 
ATOM      2  C2  <0> d          52.224  48.516  41.657  0.00  0.00     0.030 A 
ATOM      3  C3  <0> d          52.132  47.151  41.408  0.00  0.00     0.028 A 
ATOM      4  C4  <0> d          51.921  46.689  40.111  0.00  0.00     0.030 A 
ATOM      5  C5  <0> d          51.803  47.582  39.072  0.00  0.00     0.019 A 
ATOM      6  C6  <0> d          51.895  48.955  39.319  0.00  0.00     0.032 A 
ATOM      7  N2  <0> d          52.250  46.244  42.456  0.00  0.00    -0.384 N 
ATOM      8  H12 <0> d          52.405  45.306  42.270  0.00  0.00     0.160 HD
ATOM      9  C13 <0> d          52.139  46.708  43.841  0.00  0.00     0.180 C 
ATOM     10  C14 <0> d          50.694  46.676  44.268  0.00  0.00     0.070 A 
ATOM     11  N4  <0> d          50.327  47.276  45.382  0.00  0.00    -0.241 NA
ATOM     12  C17 <0> d          49.054  47.251  45.753  0.00  0.00     0.174 A 
ATOM     13  C16 <0> d          48.098  46.573  44.961  0.00  0.00     0.202 A 
ATOM     14  C18 <0> d          48.591  47.909  46.986  0.00  0.00     0.292 A 
ATOM     15  N3  <0> d          48.488  45.968  43.839  0.00  0.00    -0.237 NA
ATOM     16  N6  <0> d          46.811  46.556  45.358  0.00  0.00    -0.043 NA
ATOM     17  C15 <0> d          49.757  46.010  43.484  0.00  0.00     0.147 A 
ATOM     18  C19 <0> d          46.422  47.150  46.459  0.00  0.00     0.703 A 
ATOM     19  N5  <0> d          47.274  47.825  47.284  0.00  0.00    -0.152 N 
ATOM     20  H2  <0> d          46.923  48.260  48.112  0.00  0.00     0.187 HD
ATOM     21  O4  <0> d          49.364  48.509  47.710  0.00  0.00    -0.265 OA
ATOM     22  N7  <0> d          45.095  47.090  46.799  0.00  0.00    -0.233 N 
ATOM     23  H16 <0> d          44.452  46.719  46.175  0.00  0.00     0.174 HD
ATOM     24  H17 <0> d          44.801  47.418  47.661  0.00  0.00     0.174 HD
ATOM     25  C7  <0> d          51.776  49.916  38.205  0.00  0.00     0.252 C 
ATOM     26  O1  <0> d          52.344  49.699  37.152  0.00  0.00    -0.268 OA
ATOM     27  N1  <0> d          51.040  51.036  38.357  0.00  0.00    -0.342 N 
ATOM     28  H7  <0> d          50.588  51.208  39.198  0.00  0.00     0.163 HD
ATOM     29  C8  <0> d          50.923  51.989  37.252  0.00  0.00     0.186 C 
ATOM     30  C9  <0> d          51.117  53.412  37.783  0.00  0.00     0.046 C 
ATOM     31  C10 <0> d          52.461  53.958  37.297  0.00  0.00     0.116 C 
ATOM     32  C11 <0> d          53.441  53.968  38.443  0.00  0.00     0.172 C 
ATOM     33  O2  <0> d          54.186  54.907  38.593  0.00  0.00    -0.648 OA
ATOM     34  O5  <0> d          53.487  52.931  39.295  0.00  0.00    -0.648 OA
ATOM     35  C12 <0> d          49.555  51.870  36.627  0.00  0.00     0.196 C 
ATOM     36  O3  <0> d          48.986  52.856  36.227  0.00  0.00    -0.646 OA
ATOM     37  O6  <0> d          48.972  50.665  36.517  0.00  0.00    -0.646 OA
ENDMDL
MODEL 2
REMARK VINA RESULT:      -9.6      1.580      2.798
ATOM      1  C1  <0> d          51.670  48.157  39.461  0.00  0.00     0.019 A 
ATOM      2  C2  <0> d          52.236  47.624  40.595  0.00  0.00     0.030 A 
ATOM      3  C3  <0> d          52.008  48.216  41.833  0.00  0.00     0.028 A 
ATOM      4  C4  <0> d          51.206  49.350  41.929  0.00  0.00     0.030 A 
ATOM      5  C5  <0> d          50.636  49.889  40.798  0.00  0.00     0.019 A 
ATOM      6  C6  <0> d          50.864  49.296  39.552  0.00  0.00     0.032 A 
ATOM      7  N2  <0> d          52.582  47.674  42.978  0.00  0.00    -0.384 N 
ATOM      8  H12 <0> d          53.219  48.194  43.493  0.00  0.00     0.160 HD
ATOM      9  C13 <0> d          52.227  46.319  43.405  0.00  0.00     0.180 C 
ATOM     10  C14 <0> d          50.797  46.301  43.881  0.00  0.00     0.070 A 
ATOM     11  N4  <0> d          50.491  46.819  45.053  0.00  0.00    -0.241 NA
ATOM     12  C17 <0> d          49.231  46.807  45.467  0.00  0.00     0.174 A 
ATOM     13  C16 <0> d          48.224  46.229  44.659  0.00  0.00     0.202 A 
ATOM     14  C18 <0> d          48.835  47.377  46.766  0.00  0.00     0.292 A 
ATOM     15  N3  <0> d          48.553  45.705  43.479  0.00  0.00    -0.237 NA
ATOM     16  N6  <0> d          46.952  46.223  45.100  0.00  0.00    -0.043 NA
ATOM     17  C15 <0> d          49.811  45.733  43.081  0.00  0.00     0.147 A 
ATOM     18  C19 <0> d          46.622  46.738  46.260  0.00  0.00     0.703 A 
ATOM     19  N5  <0> d          47.526  47.313  47.104  0.00  0.00    -0.152 N 
ATOM     20  H2  <0> d          47.220  47.691  47.977  0.00  0.00     0.187 HD
ATOM     21  O4  <0> d          49.654  47.889  47.507  0.00  0.00    -0.265 OA
ATOM     22  N7  <0> d          45.306  46.694  46.642  0.00  0.00    -0.233 N 
ATOM     23  H16 <0> d          44.873  45.840  46.790  0.00  0.00     0.174 HD
ATOM     24  H17 <0> d          44.810  47.517  46.763  0.00  0.00     0.174 HD
ATOM     25  C7  <0> d          50.249  49.867  38.338  0.00  0.00     0.252 C 
ATOM     26  O1  <0> d          49.146  49.496  37.984  0.00  0.00    -0.268 OA
ATOM     27  N1  <0> d          50.910  50.798  37.622  0.00  0.00    -0.342 N 
ATOM     28  H7  <0> d          51.790  51.093  37.906  0.00  0.00     0.163 HD
ATOM     29  C8  <0> d          50.300  51.364  36.418  0.00  0.00     0.186 C 
ATOM     30  C9  <0> d          51.254  51.192  35.233  0.00  0.00     0.046 C 
ATOM     31  C10 <0> d          50.822  49.982  34.402  0.00  0.00     0.116 C 
ATOM     32  C11 <0> d          51.215  48.715  35.120  0.00  0.00     0.172 C 
ATOM     33  O2  <0> d          52.307  48.621  35.626  0.00  0.00    -0.648 OA
ATOM     34  O5  <0> d          50.349  47.691  35.195  0.00  0.00    -0.648 OA
ATOM     35  C12 <0> d          50.028  52.831  36.633  0.00  0.00     0.196 C 
ATOM     36  O3  <0> d          50.943  53.591  36.842  0.00  0.00    -0.646 OA
ATOM     37  O6  <0> d          48.768  53.292  36.593  0.00  0.00    -0.646 OA
ENDMDL
MODEL 3
REMARK VINA RESULT:      -9.6      1.677      2.105
ATOM      1  C1  <0> d          51.936  48.631  39.591  0.00  0.00     0.019 A 
ATOM      2  C2  <0> d          51.719  47.675  40.555  0.00  0.00     0.030 A 
ATOM      3  C3  <0> d          51.278  46.406  40.194  0.00  0.00     0.028 A 
ATOM      4  C4  <0> d          51.054  46.099  38.854  0.00  0.00     0.030 A 
ATOM      5  C5  <0> d          51.267  47.051  37.884  0.00  0.00     0.019 A 
ATOM      6  C6  <0> d          51.711  48.327  38.244  0.00  0.00     0.032 A 
ATOM      7  N2  <0> d          51.061  45.441  41.172  0.00  0.00    -0.384 N 
ATOM      8  H12 <0> d          50.620  44.609  40.941  0.00  0.00     0.160 HD
ATOM      9  C13 <0> d          51.496  45.684  42.549  0.00  0.00     0.180 C 
ATOM     10  C14 <0> d          50.310  46.082  43.389  0.00  0.00     0.070 A 
ATOM     11  N4  <0> d          49.474  45.160  43.819  0.00  0.00    -0.241 NA
ATOM     12  C17 <0> d          48.434  45.512  44.563  0.00  0.00     0.174 A 
ATOM     13  C16 <0> d          48.218  46.873  44.881  0.00  0.00     0.202 A 
ATOM     14  C18 <0> d          47.472  44.520  45.073  0.00  0.00     0.292 A 
ATOM     15  N3  <0> d          49.072  47.793  44.432  0.00  0.00    -0.237 NA
ATOM     16  N6  <0> d          47.153  47.210  45.634  0.00  0.00    -0.043 NA
ATOM     17  C15 <0> d          50.104  47.422  43.700  0.00  0.00     0.147 A 
ATOM     18  C19 <0> d          46.311  46.310  46.078  0.00  0.00     0.703 A 
ATOM     19  N5  <0> d          46.439  44.976  45.819  0.00  0.00    -0.152 N 
ATOM     20  H2  <0> d          45.768  44.333  46.184  0.00  0.00     0.187 HD
ATOM     21  O4  <0> d          47.603  43.333  44.834  0.00  0.00    -0.265 OA
ATOM     22  N7  <0> d          45.249  46.728  46.838  0.00  0.00    -0.233 N 
ATOM     23  H16 <0> d          45.189  47.654  47.117  0.00  0.00     0.174 HD
ATOM     24  H17 <0> d          44.561  46.097  47.096  0.00  0.00     0.174 HD
ATOM     25  C7  <0> d          51.948  49.348  37.206  0.00  0.00     0.252 C 
ATOM     26  O1  <0> d          52.600  49.070  36.218  0.00  0.00    -0.268 OA
ATOM     27  N1  <0> d          51.443  50.589  37.354  0.00  0.00    -0.342 N 
ATOM     28  H7  <0> d          50.923  50.810  38.143  0.00  0.00     0.163 HD
ATOM     29  C8  <0> d          51.679  51.603  36.323  0.00  0.00     0.186 C 
ATOM     30  C9  <0> d          51.872  52.969  36.985  0.00  0.00     0.046 C 
ATOM     31  C10 <0> d          52.220  52.776  38.462  0.00  0.00     0.116 C 
ATOM     32  C11 <0> d          53.530  53.460  38.762  0.00  0.00     0.172 C 
ATOM     33  O2  <0> d          54.342  52.923  39.477  0.00  0.00    -0.648 OA
ATOM     34  O5  <0> d          53.792  54.667  38.236  0.00  0.00    -0.648 OA
ATOM     35  C12 <0> d          50.493  51.659  35.393  0.00  0.00     0.196 C 
ATOM     36  O3  <0> d          50.485  50.994  34.385  0.00  0.00    -0.646 OA
ATOM     37  O6  <0> d          49.449  52.450  35.686  0.00  0.00    -0.646 OA
ENDMDL
MODEL 4
REMARK VINA RESULT:      -9.5      2.149      2.760
ATOM      1  C1  <0> d          51.844  48.941  40.438  0.00  0.00     0.019 A 
ATOM      2  C2  <0> d          52.311  48.249  41.531  0.00  0.00     0.030 A 
ATOM      3  C3  <0> d          51.985  46.907  41.699  0.00  0.00     0.028 A 
ATOM      4  C4  <0> d          51.185  46.260  40.761  0.00  0.00     0.030 A 
ATOM      5  C5  <0> d          50.713  46.946  39.666  0.00  0.00     0.019 A 
ATOM      6  C6  <0> d          51.039  48.295  39.495  0.00  0.00     0.032 A 
ATOM      7  N2  <0> d          52.460  46.210  42.805  0.00  0.00    -0.384 N 
ATOM      8  H12 <0> d          52.764  45.295  42.707  0.00  0.00     0.160 HD
ATOM      9  C13 <0> d          52.499  46.859  44.117  0.00  0.00     0.180 C 
ATOM     10  C14 <0> d          51.095  47.041  44.631  0.00  0.00     0.070 A 
ATOM     11  N4  <0> d          50.347  45.985  44.881  0.00  0.00    -0.241 NA
ATOM     12  C17 <0> d          49.113  46.147  45.339  0.00  0.00     0.174 A 
ATOM     13  C16 <0> d          48.598  47.448  45.544  0.00  0.00     0.202 A 
ATOM     14  C18 <0> d          48.239  45.001  45.639  0.00  0.00     0.292 A 
ATOM     15  N3  <0> d          49.366  48.505  45.280  0.00  0.00    -0.237 NA
ATOM     16  N6  <0> d          47.341  47.591  46.004  0.00  0.00    -0.043 NA
ATOM     17  C15 <0> d          50.593  48.323  44.832  0.00  0.00     0.147 A 
ATOM     18  C19 <0> d          46.581  46.555  46.266  0.00  0.00     0.703 A 
ATOM     19  N5  <0> d          46.993  45.266  46.096  0.00  0.00    -0.152 N 
ATOM     20  H2  <0> d          46.373  44.514  46.312  0.00  0.00     0.187 HD
ATOM     21  O4  <0> d          48.623  43.856  45.484  0.00  0.00    -0.265 OA
ATOM     22  N7  <0> d          45.311  46.779  46.732  0.00  0.00    -0.233 N 
ATOM     23  H16 <0> d          44.567  46.272  46.372  0.00  0.00     0.174 HD
ATOM     24  H17 <0> d          45.158  47.444  47.419  0.00  0.00     0.174 HD
ATOM     25  C7  <0> d          50.541  49.033  38.318  0.00  0.00     0.252 C 
ATOM     26  O1  <0> d          50.022  48.430  37.398  0.00  0.00    -0.268 OA
ATOM     27  N1  <0> d          50.663  50.374  38.262  0.00  0.00    -0.342 N 
ATOM     28  H7  <0> d          51.077  50.854  38.996  0.00  0.00     0.163 HD
ATOM     29  C8  <0> d          50.169  51.105  37.094  0.00  0.00     0.186 C 
ATOM     30  C9  <0> d          51.354  51.656  36.297  0.00  0.00     0.046 C 
ATOM     31  C10 <0> d          51.321  51.090  34.877  0.00  0.00     0.116 C 
ATOM     32  C11 <0> d          51.922  49.708  34.874  0.00  0.00     0.172 C 
ATOM     33  O2  <0> d          52.921  49.482  35.514  0.00  0.00    -0.648 OA
ATOM     34  O5  <0> d          51.348  48.728  34.157  0.00  0.00    -0.648 OA
ATOM     35  C12 <0> d          49.295  52.248  37.548  0.00  0.00     0.196 C 
ATOM     36  O3  <0> d          48.936  52.313  38.699  0.00  0.00    -0.646 OA
ATOM     37  O6  <0> d          48.917  53.191  36.671  0.00  0.00    -0.646 OA
ENDMDL
MODEL 5
REMARK VINA RESULT:      -9.4      1.728      2.447
ATOM      1  C1  <0> d          52.149  48.862  41.032  0.00  0.00     0.019 A 
ATOM      2  C2  <0> d          52.273  48.120  42.183  0.00  0.00     0.030 A 
ATOM      3  C3  <0> d          52.107  46.739  42.144  0.00  0.00     0.028 A 
ATOM      4  C4  <0> d          51.813  46.104  40.940  0.00  0.00     0.030 A 
ATOM      5  C5  <0> d          51.686  46.841  39.785  0.00  0.00     0.019 A 
ATOM      6  C6  <0> d          51.853  48.228  39.821  0.00  0.00     0.032 A 
ATOM      7  N2  <0> d          52.234  45.991  43.309  0.00  0.00    -0.384 N 
ATOM      8  H12 <0> d          52.453  45.048  43.258  0.00  0.00     0.160 HD
ATOM      9  C13 <0> d          52.036  46.628  44.613  0.00  0.00     0.180 C 
ATOM     10  C14 <0> d          50.564  46.681  44.929  0.00  0.00     0.070 A 
ATOM     11  N4  <0> d          50.132  47.445  45.912  0.00  0.00    -0.241 NA
ATOM     12  C17 <0> d          48.835  47.494  46.184  0.00  0.00     0.174 A 
ATOM     13  C16 <0> d          47.922  46.720  45.430  0.00  0.00     0.202 A 
ATOM     14  C18 <0> d          48.301  48.335  47.269  0.00  0.00     0.292 A 
ATOM     15  N3  <0> d          48.377  45.949  44.443  0.00  0.00    -0.237 NA
ATOM     16  N6  <0> d          46.610  46.782  45.727  0.00  0.00    -0.043 NA
ATOM     17  C15 <0> d          49.670  45.919  44.183  0.00  0.00     0.147 A 
ATOM     18  C19 <0> d          46.157  47.538  46.696  0.00  0.00     0.703 A 
ATOM     19  N5  <0> d          46.963  48.315  47.475  0.00  0.00    -0.152 N 
ATOM     20  H2  <0> d          46.564  48.873  48.201  0.00  0.00     0.187 HD
ATOM     21  O4  <0> d          49.035  49.024  47.954  0.00  0.00    -0.265 OA
ATOM     22  N7  <0> d          44.807  47.548  46.939  0.00  0.00    -0.233 N 
ATOM     23  H16 <0> d          44.237  48.181  46.477  0.00  0.00     0.174 HD
ATOM     24  H17 <0> d          44.425  46.923  47.574  0.00  0.00     0.174 HD
ATOM     25  C7  <0> d          51.725  49.021  38.583  0.00  0.00     0.252 C 
ATOM     26  O1  <0> d          52.442  49.986  38.402  0.00  0.00    -0.268 OA
ATOM     27  N1  <0> d          50.810  48.677  37.654  0.00  0.00    -0.342 N 
ATOM     28  H7  <0> d          50.238  47.907  37.800  0.00  0.00     0.163 HD
ATOM     29  C8  <0> d          50.683  49.464  36.426  0.00  0.00     0.186 C 
ATOM     30  C9  <0> d          49.321  50.162  36.406  0.00  0.00     0.046 C 
ATOM     31  C10 <0> d          49.320  51.308  37.419  0.00  0.00     0.116 C 
ATOM     32  C11 <0> d          49.605  52.606  36.707  0.00  0.00     0.172 C 
ATOM     33  O2  <0> d          48.754  53.461  36.645  0.00  0.00    -0.648 OA
ATOM     34  O5  <0> d          50.805  52.811  36.141  0.00  0.00    -0.648 OA
ATOM     35  C12 <0> d          50.797  48.552  35.230  0.00  0.00     0.196 C 
ATOM     36  O3  <0> d          50.227  47.487  35.225  0.00  0.00    -0.646 OA
ATOM     37  O6  <0> d          51.533  48.926  34.171  0.00  0.00    -0.646 OA
ENDMDL
MODEL 6
REMARK VINA RESULT:      -9.4      1.994      2.789
ATOM      1  C1  <0> d          52.235  48.670  40.988  0.00  0.00     0.019 A 
ATOM      2  C2  <0> d          52.330  47.898  42.122  0.00  0.00     0.030 A 
ATOM      3  C3  <0> d          51.957  46.558  42.088  0.00  0.00     0.028 A 
ATOM      4  C4  <0> d          51.485  45.994  40.906  0.00  0.00     0.030 A 
ATOM      5  C5  <0> d          51.386  46.760  39.767  0.00  0.00     0.019 A 
ATOM      6  C6  <0> d          51.761  48.107  39.799  0.00  0.00     0.032 A 
ATOM      7  N2  <0> d          52.054  45.781  43.237  0.00  0.00    -0.384 N 
ATOM      8  H12 <0> d          52.075  44.814  43.167  0.00  0.00     0.160 HD
ATOM      9  C13 <0> d          52.123  46.423  44.552  0.00  0.00     0.180 C 
ATOM     10  C14 <0> d          50.733  46.775  45.013  0.00  0.00     0.070 A 
ATOM     11  N4  <0> d          49.839  45.822  45.185  0.00  0.00    -0.241 NA
ATOM     12  C17 <0> d          48.617  46.134  45.596  0.00  0.00     0.174 A 
ATOM     13  C16 <0> d          48.274  47.484  45.838  0.00  0.00     0.202 A 
ATOM     14  C18 <0> d          47.584  45.107  45.808  0.00  0.00     0.292 A 
ATOM     15  N3  <0> d          49.189  48.436  45.654  0.00  0.00    -0.237 NA
ATOM     16  N6  <0> d          47.026  47.779  46.251  0.00  0.00    -0.043 NA
ATOM     17  C15 <0> d          50.400  48.105  45.251  0.00  0.00     0.147 A 
ATOM     18  C19 <0> d          46.122  46.848  46.433  0.00  0.00     0.703 A 
ATOM     19  N5  <0> d          46.364  45.523  46.224  0.00  0.00    -0.152 N 
ATOM     20  H2  <0> d          45.638  44.854  46.379  0.00  0.00     0.187 HD
ATOM     21  O4  <0> d          47.817  43.927  45.618  0.00  0.00    -0.265 OA
ATOM     22  N7  <0> d          44.873  47.226  46.855  0.00  0.00    -0.233 N 
ATOM     23  H16 <0> d          44.119  47.164  46.249  0.00  0.00     0.174 HD
ATOM     24  H17 <0> d          44.745  47.554  47.757  0.00  0.00     0.174 HD
ATOM     25  C7  <0> d          51.664  48.930  38.578  0.00  0.00     0.252 C 
ATOM     26  O1  <0> d          52.330  49.942  38.472  0.00  0.00    -0.268 OA
ATOM     27  N1  <0> d          50.835  48.561  37.581  0.00  0.00    -0.342 N 
ATOM     28  H7  <0> d          50.303  47.754  37.666  0.00  0.00     0.163 HD
ATOM     29  C8  <0> d          50.738  49.379  36.370  0.00  0.00     0.186 C 
ATOM     30  C9  <0> d          49.409  50.138  36.371  0.00  0.00     0.046 C 
ATOM     31  C10 <0> d          49.639  51.567  36.865  0.00  0.00     0.116 C 
ATOM     32  C11 <0> d          50.718  52.217  36.036  0.00  0.00     0.172 C 
ATOM     33  O2  <0> d          50.629  52.230  34.832  0.00  0.00    -0.648 OA
ATOM     34  O5  <0> d          51.779  52.778  36.639  0.00  0.00    -0.648 OA
ATOM     35  C12 <0> d          50.806  48.488  35.155  0.00  0.00     0.196 C 
ATOM     36  O3  <0> d          50.211  47.437  35.142  0.00  0.00    -0.646 OA
ATOM     37  O6  <0> d          51.529  48.864  34.088  0.00  0.00    -0.646 OA
ENDMDL
MODEL 7
REMARK VINA RESULT:      -9.1      2.570      3.738
ATOM      1  C1  <0> d          50.664  49.522  41.337  0.00  0.00     0.019 A 
ATOM      2  C2  <0> d          51.177  49.177  42.565  0.00  0.00     0.030 A 
ATOM      3  C3  <0> d          52.086  48.130  42.673  0.00  0.00     0.028 A 
ATOM      4  C4  <0> d          52.481  47.427  41.538  0.00  0.00     0.030 A 
ATOM      5  C5  <0> d          51.972  47.766  40.306  0.00  0.00     0.019 A 
ATOM      6  C6  <0> d          51.058  48.818  40.194  0.00  0.00     0.032 A 
ATOM      7  N2  <0> d          52.603  47.784  43.918  0.00  0.00    -0.384 N 
ATOM      8  H12 <0> d          53.255  48.359  44.348  0.00  0.00     0.160 HD
ATOM      9  C13 <0> d          52.161  46.553  44.577  0.00  0.00     0.180 C 
ATOM     10  C14 <0> d          50.680  46.627  44.841  0.00  0.00     0.070 A 
ATOM     11  N4  <0> d          50.235  47.290  45.889  0.00  0.00    -0.241 NA
ATOM     12  C17 <0> d          48.930  47.358  46.117  0.00  0.00     0.174 A 
ATOM     13  C16 <0> d          48.023  46.713  45.245  0.00  0.00     0.202 A 
ATOM     14  C18 <0> d          48.381  48.090  47.271  0.00  0.00     0.292 A 
ATOM     15  N3  <0> d          48.492  46.043  44.192  0.00  0.00    -0.237 NA
ATOM     16  N6  <0> d          46.702  46.791  45.497  0.00  0.00    -0.043 NA
ATOM     17  C15 <0> d          49.792  45.992  43.979  0.00  0.00     0.147 A 
ATOM     18  C19 <0> d          46.235  47.449  46.530  0.00  0.00     0.703 A 
ATOM     19  N5  <0> d          47.036  48.099  47.423  0.00  0.00    -0.152 N 
ATOM     20  H2  <0> d          46.626  48.586  48.194  0.00  0.00     0.187 HD
ATOM     21  O4  <0> d          49.108  48.666  48.058  0.00  0.00    -0.265 OA
ATOM     22  N7  <0> d          44.878  47.484  46.722  0.00  0.00    -0.233 N 
ATOM     23  H16 <0> d          44.462  46.868  47.344  0.00  0.00     0.174 HD
ATOM     24  H17 <0> d          44.337  48.124  46.236  0.00  0.00     0.174 HD
ATOM     25  C7  <0> d          50.515  49.189  38.873  0.00  0.00     0.252 C 
ATOM     26  O1  <0> d          49.668  50.057  38.786  0.00  0.00    -0.268 OA
ATOM     27  N1  <0> d          50.956  48.563  37.764  0.00  0.00    -0.342 N 
ATOM     28  H7  <0> d          51.632  47.870  37.834  0.00  0.00     0.163 HD
ATOM     29  C8  <0> d          50.417  48.931  36.453  0.00  0.00     0.186 C 
ATOM     30  C9  <0> d          49.606  47.762  35.888  0.00  0.00     0.046 C 
ATOM     31  C10 <0> d          50.215  46.442  36.363  0.00  0.00     0.116 C 
ATOM     32  C11 <0> d          49.635  46.078  37.707  0.00  0.00     0.172 C 
ATOM     33  O2  <0> d          48.501  46.390  37.980  0.00  0.00    -0.648 OA
ATOM     34  O5  <0> d          50.382  45.409  38.600  0.00  0.00    -0.648 OA
ATOM     35  C12 <0> d          51.552  49.254  35.514  0.00  0.00     0.196 C 
ATOM     36  O3  <0> d          51.357  49.950  34.547  0.00  0.00    -0.646 OA
ATOM     37  O6  <0> d          52.780  48.766  35.755  0.00  0.00    -0.646 OA
ENDMDL
MODEL 8
REMARK VINA RESULT:      -9.0      2.115      2.696
ATOM      1  C1  <0> d          51.837  48.566  39.255  0.00  0.00     0.019 A 
ATOM      2  C2  <0> d          51.548  47.682  40.268  0.00  0.00     0.030 A 
ATOM      3  C3  <0> d          51.166  46.378  39.969  0.00  0.00     0.028 A 
ATOM      4  C4  <0> d          51.075  45.963  38.643  0.00  0.00     0.030 A 
ATOM      5  C5  <0> d          51.363  46.843  37.624  0.00  0.00     0.019 A 
ATOM      6  C6  <0> d          51.747  48.154  37.922  0.00  0.00     0.032 A 
ATOM      7  N2  <0> d          50.874  45.487  40.996  0.00  0.00    -0.384 N 
ATOM      8  H12 <0> d          50.088  44.922  40.938  0.00  0.00     0.160 HD
ATOM      9  C13 <0> d          51.754  45.402  42.164  0.00  0.00     0.180 C 
ATOM     10  C14 <0> d          51.122  46.128  43.323  0.00  0.00     0.070 A 
ATOM     11  N4  <0> d          49.914  45.791  43.726  0.00  0.00    -0.241 NA
ATOM     12  C17 <0> d          49.362  46.428  44.751  0.00  0.00     0.174 A 
ATOM     13  C16 <0> d          50.063  47.472  45.397  0.00  0.00     0.202 A 
ATOM     14  C18 <0> d          48.017  46.086  45.244  0.00  0.00     0.292 A 
ATOM     15  N3  <0> d          51.282  47.804  44.972  0.00  0.00    -0.237 NA
ATOM     16  N6  <0> d          49.483  48.109  46.432  0.00  0.00    -0.043 NA
ATOM     17  C15 <0> d          51.817  47.154  43.956  0.00  0.00     0.147 A 
ATOM     18  C19 <0> d          48.285  47.788  46.855  0.00  0.00     0.703 A 
ATOM     19  N5  <0> d          47.536  46.796  46.291  0.00  0.00    -0.152 N 
ATOM     20  H2  <0> d          46.628  46.592  46.654  0.00  0.00     0.187 HD
ATOM     21  O4  <0> d          47.363  45.197  44.730  0.00  0.00    -0.265 OA
ATOM     22  N7  <0> d          47.758  48.481  47.914  0.00  0.00    -0.233 N 
ATOM     23  H16 <0> d          47.856  48.137  48.815  0.00  0.00     0.174 HD
ATOM     24  H17 <0> d          47.288  49.315  47.761  0.00  0.00     0.174 HD
ATOM     25  C7  <0> d          52.063  49.097  36.833  0.00  0.00     0.252 C 
ATOM     26  O1  <0> d          52.882  48.796  35.986  0.00  0.00    -0.268 OA
ATOM     27  N1  <0> d          51.444  50.294  36.777  0.00  0.00    -0.342 N 
ATOM     28  H7  <0> d          50.791  50.534  37.453  0.00  0.00     0.163 HD
ATOM     29  C8  <0> d          51.758  51.230  35.696  0.00  0.00     0.186 C 
ATOM     30  C9  <0> d          51.688  52.665  36.226  0.00  0.00     0.046 C 
ATOM     31  C10 <0> d          51.021  52.668  37.603  0.00  0.00     0.116 C 
ATOM     32  C11 <0> d          49.524  52.711  37.434  0.00  0.00     0.172 C 
ATOM     33  O2  <0> d          49.001  53.676  36.930  0.00  0.00    -0.648 OA
ATOM     34  O5  <0> d          48.772  51.678  37.846  0.00  0.00    -0.648 OA
ATOM     35  C12 <0> d          50.762  51.060  34.577  0.00  0.00     0.196 C 
ATOM     36  O3  <0> d          50.177  52.021  34.138  0.00  0.00    -0.646 OA
ATOM     37  O6  <0> d          50.526  49.839  34.071  0.00  0.00    -0.646 OA
ENDMDL
MODEL 9
REMARK VINA RESULT:      -8.9      6.762     11.239
ATOM      1  C1  <0> d          44.265  48.708  44.439  0.00  0.00     0.019 A 
ATOM      2  C2  <0> d          42.990  49.222  44.451  0.00  0.00     0.030 A 
ATOM      3  C3  <0> d          42.779  50.558  44.775  0.00  0.00     0.028 A 
ATOM      4  C4  <0> d          43.858  51.380  45.089  0.00  0.00     0.030 A 
ATOM      5  C5  <0> d          45.137  50.873  45.079  0.00  0.00     0.019 A 
ATOM      6  C6  <0> d          45.352  49.530  44.754  0.00  0.00     0.032 A 
ATOM      7  N2  <0> d          41.487  51.074  44.787  0.00  0.00    -0.384 N 
ATOM      8  H12 <0> d          40.936  50.982  45.579  0.00  0.00     0.160 HD
ATOM      9  C13 <0> d          40.962  51.757  43.602  0.00  0.00     0.180 C 
ATOM     10  C14 <0> d          39.759  51.011  43.085  0.00  0.00     0.070 A 
ATOM     11  N4  <0> d          39.923  49.890  42.413  0.00  0.00    -0.241 NA
ATOM     12  C17 <0> d          38.863  49.233  41.963  0.00  0.00     0.174 A 
ATOM     13  C16 <0> d          37.563  49.741  42.194  0.00  0.00     0.202 A 
ATOM     14  C18 <0> d          38.991  47.973  41.212  0.00  0.00     0.292 A 
ATOM     15  N3  <0> d          37.416  50.879  42.871  0.00  0.00    -0.237 NA
ATOM     16  N6  <0> d          36.500  49.060  41.725  0.00  0.00    -0.043 NA
ATOM     17  C15 <0> d          38.483  51.515  43.316  0.00  0.00     0.147 A 
ATOM     18  C19 <0> d          36.638  47.940  41.059  0.00  0.00     0.703 A 
ATOM     19  N5  <0> d          37.852  47.378  40.788  0.00  0.00    -0.152 N 
ATOM     20  H2  <0> d          37.900  46.521  40.277  0.00  0.00     0.187 HD
ATOM     21  O4  <0> d          40.082  47.484  40.980  0.00  0.00    -0.265 OA
ATOM     22  N7  <0> d          35.509  47.303  40.611  0.00  0.00    -0.233 N 
ATOM     23  H16 <0> d          35.159  47.501  39.730  0.00  0.00     0.174 HD
ATOM     24  H17 <0> d          35.062  46.656  41.178  0.00  0.00     0.174 HD
ATOM     25  C7  <0> d          46.723  48.984  44.735  0.00  0.00     0.252 C 
ATOM     26  O1  <0> d          47.564  49.477  44.009  0.00  0.00    -0.268 OA
ATOM     27  N1  <0> d          47.042  47.938  45.523  0.00  0.00    -0.342 N 
ATOM     28  H7  <0> d          46.370  47.544  46.102  0.00  0.00     0.163 HD
ATOM     29  C8  <0> d          48.402  47.396  45.504  0.00  0.00     0.186 C 
ATOM     30  C9  <0> d          48.348  45.890  45.233  0.00  0.00     0.046 C 
ATOM     31  C10 <0> d          46.977  45.347  45.639  0.00  0.00     0.116 C 
ATOM     32  C11 <0> d          46.881  43.892  45.256  0.00  0.00     0.172 C 
ATOM     33  O2  <0> d          47.782  43.135  45.529  0.00  0.00    -0.648 OA
ATOM     34  O5  <0> d          45.794  43.438  44.612  0.00  0.00    -0.648 OA
ATOM     35  C12 <0> d          49.060  47.642  46.839  0.00  0.00     0.196 C 
ATOM     36  O3  <0> d          49.093  48.758  47.299  0.00  0.00    -0.646 OA
ATOM     37  O6  <0> d          49.610  46.620  47.514  0.00  0.00    -0.646 OA
ENDMDL
MODEL 10
REMARK VINA RESULT:      -8.9      3.244      8.930
ATOM      1  C1  <0> d          50.862  45.840  39.770  0.00  0.00     0.019 A 
ATOM      2  C2  <0> d          51.050  46.106  38.433  0.00  0.00     0.030 A 
ATOM      3  C3  <0> d          51.759  47.237  38.040  0.00  0.00     0.028 A 
ATOM      4  C4  <0> d          52.280  48.103  38.997  0.00  0.00     0.030 A 
ATOM      5  C5  <0> d          52.095  47.845  40.335  0.00  0.00     0.019 A 
ATOM      6  C6  <0> d          51.383  46.709  40.734  0.00  0.00     0.032 A 
ATOM      7  N2  <0> d          51.947  47.502  36.688  0.00  0.00    -0.384 N 
ATOM      8  H12 <0> d          52.839  47.475  36.308  0.00  0.00     0.160 HD
ATOM      9  C13 <0> d          50.798  47.824  35.838  0.00  0.00     0.180 C 
ATOM     10  C14 <0> d          50.322  49.220  36.144  0.00  0.00     0.070 A 
ATOM     11  N4  <0> d          49.757  49.479  37.306  0.00  0.00    -0.241 NA
ATOM     12  C17 <0> d          49.343  50.710  37.575  0.00  0.00     0.174 A 
ATOM     13  C16 <0> d          49.497  51.736  36.613  0.00  0.00     0.202 A 
ATOM     14  C18 <0> d          48.710  51.053  38.859  0.00  0.00     0.292 A 
ATOM     15  N3  <0> d          50.066  51.454  35.441  0.00  0.00    -0.237 NA
ATOM     16  N6  <0> d          49.066  52.978  36.905  0.00  0.00    -0.043 NA
ATOM     17  C15 <0> d          50.477  50.226  35.195  0.00  0.00     0.147 A 
ATOM     18  C19 <0> d          48.506  53.261  38.056  0.00  0.00     0.703 A 
ATOM     19  N5  <0> d          48.316  52.335  39.040  0.00  0.00    -0.152 N 
ATOM     20  H2  <0> d          47.884  52.605  39.900  0.00  0.00     0.187 HD
ATOM     21  O4  <0> d          48.549  50.215  39.728  0.00  0.00    -0.265 OA
ATOM     22  N7  <0> d          48.091  54.548  38.281  0.00  0.00    -0.233 N 
ATOM     23  H16 <0> d          48.626  55.291  37.963  0.00  0.00     0.174 HD
ATOM     24  H17 <0> d          47.265  54.714  38.759  0.00  0.00     0.174 HD
ATOM     25  C7  <0> d          51.189  46.424  42.169  0.00  0.00     0.252 C 
ATOM     26  O1  <0> d          51.833  45.544  42.706  0.00  0.00    -0.268 OA
ATOM     27  N1  <0> d          50.296  47.138  42.882  0.00  0.00    -0.342 N 
ATOM     28  H7  <0> d          49.782  47.840  42.453  0.00  0.00     0.163 HD
ATOM     29  C8  <0> d          50.103  46.855  44.306  0.00  0.00     0.186 C 
ATOM     30  C9  <0> d          48.677  46.349  44.537  0.00  0.00     0.046 C 
ATOM     31  C10 <0> d          48.717  44.870  44.927  0.00  0.00     0.116 C 
ATOM     32  C11 <0> d          47.433  44.499  45.623  0.00  0.00     0.172 C 
ATOM     33  O2  <0> d          46.740  45.360  46.112  0.00  0.00    -0.648 OA
ATOM     34  O5  <0> d          47.059  43.212  45.701  0.00  0.00    -0.648 OA
ATOM     35  C12 <0> d          50.323  48.115  45.104  0.00  0.00     0.196 C 
ATOM     36  O3  <0> d          49.636  48.347  46.070  0.00  0.00    -0.646 OA
ATOM     37  O6  <0> d          51.284  48.979  44.741  0.00  0.00    -0.646 OA
ENDMDL
MODEL 1
REMARK VINA RESULT:      -9.7      0.000      0.000
ATOM      1  C1  <0> d          51.686  47.525  38.946  0.00  0.00     0.019 A 
ATOM      2  C2  <0> d          51.770  46.620  39.979  0.00  0.00     0.030 A 
ATOM      3  C3  <0> d          52.082  47.055  41.264  0.00  0.00     0.028 A 
ATOM      4  C4  <0> d          52.311  48.406  41.507  0.00  0.00     0.030 A 
ATOM      5  C5  <0> d          52.227  49.317  40.479  0.00  0.00     0.019 A 
ATOM      6  C6  <0> d          51.913  48.883  39.187  0.00  0.00     0.032 A 
ATOM      7  N2  <0> d          52.168  46.138  42.306  0.00  0.00    -0.384 N 
ATOM      8  H12 <0> d          52.277  45.194  42.113  0.00  0.00     0.160 HD
ATOM      9  C13 <0> d          52.092  46.598  43.695  0.00  0.00     0.180 C 
ATOM     10  C14 <0> d          50.660  46.558  44.159  0.00  0.00     0.070 A 
ATOM     11  N4  <0> d          50.313  47.181  45.267  0.00  0.00    -0.241 NA
ATOM     12  C17 <0> d          49.050  47.148  45.671  0.00  0.00     0.174 A 
ATOM     13  C16 <0> d          48.084  46.440  44.920  0.00  0.00     0.202 A 
ATOM     14  C18 <0> d          48.610  47.832  46.899  0.00  0.00     0.292 A 
ATOM     15  N3  <0> d          48.453  45.811  43.804  0.00  0.00    -0.237 NA
ATOM     16  N6  <0> d          46.808  46.416  45.351  0.00  0.00    -0.043 NA
ATOM     17  C15 <0> d          49.713  45.860  43.416  0.00  0.00     0.147 A 
ATOM     18  C19 <0> d          46.438  47.033  46.447  0.00  0.00     0.703 A 
ATOM     19  N5  <0> d          47.302  47.739  47.232  0.00  0.00    -0.152 N 
ATOM     20  H2  <0> d          46.966  48.191  48.058  0.00  0.00     0.187 HD
ATOM     21  O4  <0> d          49.393  48.459  47.588  0.00  0.00    -0.265 OA
ATOM     22  N7  <0> d          45.122  46.964  46.822  0.00  0.00    -0.233 N 
ATOM     23  H16 <0> d          44.705  46.101  46.969  0.00  0.00     0.174 HD
ATOM     24  H17 <0> d          44.608  47.777  46.939  0.00  0.00     0.174 HD
ATOM     25  C7  <0> d          51.817  49.857  38.084  0.00  0.00     0.252 C 
ATOM     26  O1  <0> d          52.345  49.620  37.016  0.00  0.00    -0.268 OA
ATOM     27  N1  <0> d          51.142  51.010  38.261  0.00  0.00    -0.342 N 
ATOM     28  H7  <0> d          50.719  51.198  39.114  0.00  0.00     0.163 HD
ATOM     29  C8  <0> d          51.045  51.978  37.166  0.00  0.00     0.186 C 
ATOM     30  C9  <0> d          51.192  53.395  37.722  0.00  0.00     0.046 C 
ATOM     31  C10 <0> d          52.535  53.979  37.284  0.00  0.00     0.116 C 
ATOM     32  C11 <0> d          53.480  54.002  38.456  0.00  0.00     0.172 C 
ATOM     33  O2  <0> d          54.181  54.967  38.649  0.00  0.00    -0.648 OA
ATOM     34  O5  <0> d          53.544  52.949  39.288  0.00  0.00    -0.648 OA
ATOM     35  C12 <0> d          49.705  51.840  36.490  0.00  0.00     0.196 C 
ATOM     36  O3  <0> d          49.316  50.752  36.136  0.00  0.00    -0.646 OA
ATOM     37  O6  <0> d          48.944  52.925  36.281  0.00  0.00    -0.646 OA
ENDMDL
MODEL 2
REMARK VINA RESULT:      -9.5      2.123      2.914
ATOM      1  C1  <0> d          52.192  48.748  40.930  0.00  0.00     0.019 A 
ATOM      2  C2  <0> d          52.274  47.957  42.053  0.00  0.00     0.030 A 
ATOM      3  C3  <0> d          51.947  46.606  41.981  0.00  0.00     0.028 A 
ATOM      4  C4  <0> d          51.536  46.051  40.772  0.00  0.00     0.030 A 
ATOM      5  C5  <0> d          51.452  46.837  39.645  0.00  0.00     0.019 A 
ATOM      6  C6  <0> d          51.780  48.194  39.715  0.00  0.00     0.032 A 
ATOM      7  N2  <0> d          52.031  45.810  43.117  0.00  0.00    -0.384 N 
ATOM      8  H12 <0> d          52.031  44.843  43.033  0.00  0.00     0.160 HD
ATOM      9  C13 <0> d          52.116  46.430  44.442  0.00  0.00     0.180 C 
ATOM     10  C14 <0> d          50.733  46.782  44.922  0.00  0.00     0.070 A 
ATOM     11  N4  <0> d          49.844  45.828  45.113  0.00  0.00    -0.241 NA
ATOM     12  C17 <0> d          48.628  46.140  45.540  0.00  0.00     0.174 A 
ATOM     13  C16 <0> d          48.286  47.491  45.780  0.00  0.00     0.202 A 
ATOM     14  C18 <0> d          47.600  45.112  45.775  0.00  0.00     0.292 A 
ATOM     15  N3  <0> d          49.196  48.443  45.578  0.00  0.00    -0.237 NA
ATOM     16  N6  <0> d          47.044  47.785  46.210  0.00  0.00    -0.043 NA
ATOM     17  C15 <0> d          50.402  48.112  45.157  0.00  0.00     0.147 A 
ATOM     18  C19 <0> d          46.145  46.854  46.412  0.00  0.00     0.703 A 
ATOM     19  N5  <0> d          46.388  45.527  46.207  0.00  0.00    -0.152 N 
ATOM     20  H2  <0> d          45.664  44.857  46.378  0.00  0.00     0.187 HD
ATOM     21  O4  <0> d          47.833  43.932  45.587  0.00  0.00    -0.265 OA
ATOM     22  N7  <0> d          44.902  47.230  46.850  0.00  0.00    -0.233 N 
ATOM     23  H16 <0> d          44.750  47.393  47.795  0.00  0.00     0.174 HD
ATOM     24  H17 <0> d          44.175  47.333  46.217  0.00  0.00     0.174 HD
ATOM     25  C7  <0> d          51.697  49.037  38.507  0.00  0.00     0.252 C 
ATOM     26  O1  <0> d          52.299  50.091  38.459  0.00  0.00    -0.268 OA
ATOM     27  N1  <0> d          50.953  48.637  37.457  0.00  0.00    -0.342 N 
ATOM     28  H7  <0> d          50.472  47.795  37.496  0.00  0.00     0.163 HD
ATOM     29  C8  <0> d          50.870  49.473  36.257  0.00  0.00     0.186 C 
ATOM     30  C9  <0> d          49.618  50.349  36.330  0.00  0.00     0.046 C 
ATOM     31  C10 <0> d          50.005  51.812  36.113  0.00  0.00     0.116 C 
ATOM     32  C11 <0> d          49.304  52.674  37.130  0.00  0.00     0.172 C 
ATOM     33  O2  <0> d          48.711  53.666  36.777  0.00  0.00    -0.648 OA
ATOM     34  O5  <0> d          49.337  52.340  38.431  0.00  0.00    -0.648 OA
ATOM     35  C12 <0> d          50.797  48.594  35.036  0.00  0.00     0.196 C 
ATOM     36  O3  <0> d          50.111  47.600  35.047  0.00  0.00    -0.646 OA
ATOM     37  O6  <0> d          51.494  48.915  33.935  0.00  0.00    -0.646 OA
ENDMDL
MODEL 3
REMARK VINA RESULT:      -9.4      2.167      2.935
ATOM      1  C1  <0> d          51.730  49.019  40.380  0.00  0.00     0.019 A 
ATOM      2  C2  <0> d          52.216  48.345  41.476  0.00  0.00     0.030 A 
ATOM      3  C3  <0> d          51.953  46.986  41.633  0.00  0.00     0.028 A 
ATOM      4  C4  <0> d          51.197  46.308  40.682  0.00  0.00     0.030 A 
ATOM      5  C5  <0> d          50.708  46.977  39.582  0.00  0.00     0.019 A 
ATOM      6  C6  <0> d          50.971  48.340  39.422  0.00  0.00     0.032 A 
ATOM      7  N2  <0> d          52.444  46.307  42.742  0.00  0.00    -0.384 N 
ATOM      8  H12 <0> d          52.756  45.394  42.652  0.00  0.00     0.160 HD
ATOM      9  C13 <0> d          52.489  46.972  44.047  0.00  0.00     0.180 C 
ATOM     10  C14 <0> d          51.088  47.142  44.573  0.00  0.00     0.070 A 
ATOM     11  N4  <0> d          50.356  46.080  44.843  0.00  0.00    -0.241 NA
ATOM     12  C17 <0> d          49.124  46.233  45.310  0.00  0.00     0.174 A 
ATOM     13  C16 <0> d          48.596  47.530  45.507  0.00  0.00     0.202 A 
ATOM     14  C18 <0> d          48.268  45.079  45.633  0.00  0.00     0.292 A 
ATOM     15  N3  <0> d          49.349  48.593  45.223  0.00  0.00    -0.237 NA
ATOM     16  N6  <0> d          47.342  47.662  45.978  0.00  0.00    -0.043 NA
ATOM     17  C15 <0> d          50.573  48.421  44.764  0.00  0.00     0.147 A 
ATOM     18  C19 <0> d          46.597  46.621  46.259  0.00  0.00     0.703 A 
ATOM     19  N5  <0> d          47.025  45.335  46.100  0.00  0.00    -0.152 N 
ATOM     20  H2  <0> d          46.414  44.577  46.331  0.00  0.00     0.187 HD
ATOM     21  O4  <0> d          48.664  43.938  45.486  0.00  0.00    -0.265 OA
ATOM     22  N7  <0> d          45.330  46.834  46.735  0.00  0.00    -0.233 N 
ATOM     23  H16 <0> d          45.196  47.369  47.532  0.00  0.00     0.174 HD
ATOM     24  H17 <0> d          44.568  46.450  46.274  0.00  0.00     0.174 HD
ATOM     25  C7  <0> d          50.454  49.059  38.242  0.00  0.00     0.252 C 
ATOM     26  O1  <0> d          49.954  48.439  37.324  0.00  0.00    -0.268 OA
ATOM     27  N1  <0> d          50.536  50.402  38.183  0.00  0.00    -0.342 N 
ATOM     28  H7  <0> d          50.935  50.897  38.916  0.00  0.00     0.163 HD
ATOM     29  C8  <0> d          50.023  51.117  37.012  0.00  0.00     0.186 C 
ATOM     30  C9  <0> d          51.193  51.587  36.146  0.00  0.00     0.046 C 
ATOM     31  C10 <0> d          51.077  50.970  34.752  0.00  0.00     0.116 C 
ATOM     32  C11 <0> d          51.798  49.647  34.726  0.00  0.00     0.172 C 
ATOM     33  O2  <0> d          51.398  48.755  34.016  0.00  0.00    -0.648 OA
ATOM     34  O5  <0> d          52.885  49.459  35.493  0.00  0.00    -0.648 OA
ATOM     35  C12 <0> d          49.221  52.310  37.463  0.00  0.00     0.196 C 
ATOM     36  O3  <0> d          48.893  53.155  36.663  0.00  0.00    -0.646 OA
ATOM     37  O6  <0> d          48.870  52.435  38.752  0.00  0.00    -0.646 OA
ENDMDL
MODEL 4
REMARK VINA RESULT:      -9.4      2.325      3.677
ATOM      1  C1  <0> d          50.913  49.611  41.033  0.00  0.00     0.019 A 
ATOM      2  C2  <0> d          51.397  49.262  42.273  0.00  0.00     0.030 A 
ATOM      3  C3  <0> d          52.152  48.103  42.427  0.00  0.00     0.028 A 
ATOM      4  C4  <0> d          52.420  47.293  41.327  0.00  0.00     0.030 A 
ATOM      5  C5  <0> d          51.939  47.636  40.083  0.00  0.00     0.019 A 
ATOM      6  C6  <0> d          51.181  48.801  39.926  0.00  0.00     0.032 A 
ATOM      7  N2  <0> d          52.639  47.753  43.681  0.00  0.00    -0.384 N 
ATOM      8  H12 <0> d          53.264  48.336  44.139  0.00  0.00     0.160 HD
ATOM      9  C13 <0> d          52.209  46.501  44.310  0.00  0.00     0.180 C 
ATOM     10  C14 <0> d          50.739  46.579  44.630  0.00  0.00     0.070 A 
ATOM     11  N4  <0> d          50.341  47.168  45.739  0.00  0.00    -0.241 NA
ATOM     12  C17 <0> d          49.046  47.240  46.017  0.00  0.00     0.174 A 
ATOM     13  C16 <0> d          48.099  46.678  45.130  0.00  0.00     0.202 A 
ATOM     14  C18 <0> d          48.549  47.892  47.240  0.00  0.00     0.292 A 
ATOM     15  N3  <0> d          48.520  46.081  44.014  0.00  0.00    -0.237 NA
ATOM     16  N6  <0> d          46.789  46.758  45.432  0.00  0.00    -0.043 NA
ATOM     17  C15 <0> d          49.812  46.025  43.754  0.00  0.00     0.147 A 
ATOM     18  C19 <0> d          46.369  47.343  46.527  0.00  0.00     0.703 A 
ATOM     19  N5  <0> d          47.210  47.912  47.438  0.00  0.00    -0.152 N 
ATOM     20  H2  <0> d          46.835  48.346  48.257  0.00  0.00     0.187 HD
ATOM     21  O4  <0> d          49.312  48.395  48.042  0.00  0.00    -0.265 OA
ATOM     22  N7  <0> d          45.020  47.386  46.768  0.00  0.00    -0.233 N 
ATOM     23  H16 <0> d          44.413  46.872  46.213  0.00  0.00     0.174 HD
ATOM     24  H17 <0> d          44.674  47.930  47.491  0.00  0.00     0.174 HD
ATOM     25  C7  <0> d          50.670  49.175  38.593  0.00  0.00     0.252 C 
ATOM     26  O1  <0> d          49.611  49.763  38.491  0.00  0.00    -0.268 OA
ATOM     27  N1  <0> d          51.378  48.864  37.490  0.00  0.00    -0.342 N 
ATOM     28  H7  <0> d          52.223  48.396  37.572  0.00  0.00     0.163 HD
ATOM     29  C8  <0> d          50.872  49.236  36.166  0.00  0.00     0.186 C 
ATOM     30  C9  <0> d          50.611  47.971  35.346  0.00  0.00     0.046 C 
ATOM     31  C10 <0> d          49.408  47.226  35.925  0.00  0.00     0.116 C 
ATOM     32  C11 <0> d          49.869  46.304  37.023  0.00  0.00     0.172 C 
ATOM     33  O2  <0> d          49.102  45.972  37.895  0.00  0.00    -0.648 OA
ATOM     34  O5  <0> d          51.133  45.849  37.032  0.00  0.00    -0.648 OA
ATOM     35  C12 <0> d          51.892  50.091  35.460  0.00  0.00     0.196 C 
ATOM     36  O3  <0> d          52.937  49.607  35.094  0.00  0.00    -0.646 OA
ATOM     37  O6  <0> d          51.640  51.390  35.236  0.00  0.00    -0.646 OA
ENDMDL
MODEL 5
REMARK VINA RESULT:      -9.4      1.697      2.366
ATOM      1  C1  <0> d          51.415  46.863  39.866  0.00  0.00     0.019 A 
ATOM      2  C2  <0> d          51.541  46.113  41.012  0.00  0.00     0.030 A 
ATOM      3  C3  <0> d          52.047  46.692  42.173  0.00  0.00     0.028 A 
ATOM      4  C4  <0> d          52.428  48.031  42.176  0.00  0.00     0.030 A 
ATOM      5  C5  <0> d          52.305  48.787  41.033  0.00  0.00     0.019 A 
ATOM      6  C6  <0> d          51.796  48.208  39.866  0.00  0.00     0.032 A 
ATOM      7  N2  <0> d          52.173  45.932  43.330  0.00  0.00    -0.384 N 
ATOM      8  H12 <0> d          52.387  44.988  43.269  0.00  0.00     0.160 HD
ATOM      9  C13 <0> d          51.981  46.556  44.642  0.00  0.00     0.180 C 
ATOM     10  C14 <0> d          50.509  46.643  44.946  0.00  0.00     0.070 A 
ATOM     11  N4  <0> d          50.090  47.389  45.948  0.00  0.00    -0.241 NA
ATOM     12  C17 <0> d          48.793  47.468  46.211  0.00  0.00     0.174 A 
ATOM     13  C16 <0> d          47.865  46.747  45.425  0.00  0.00     0.202 A 
ATOM     14  C18 <0> d          48.273  48.292  47.316  0.00  0.00     0.292 A 
ATOM     15  N3  <0> d          48.306  45.994  44.417  0.00  0.00    -0.237 NA
ATOM     16  N6  <0> d          46.553  46.838  45.711  0.00  0.00    -0.043 NA
ATOM     17  C15 <0> d          49.600  45.932  44.169  0.00  0.00     0.147 A 
ATOM     18  C19 <0> d          46.112  47.578  46.700  0.00  0.00     0.703 A 
ATOM     19  N5  <0> d          46.934  48.306  47.509  0.00  0.00    -0.152 N 
ATOM     20  H2  <0> d          46.544  48.854  48.249  0.00  0.00     0.187 HD
ATOM     21  O4  <0> d          49.020  48.936  48.029  0.00  0.00    -0.265 OA
ATOM     22  N7  <0> d          44.762  47.621  46.931  0.00  0.00    -0.233 N 
ATOM     23  H16 <0> d          44.430  47.760  47.832  0.00  0.00     0.174 HD
ATOM     24  H17 <0> d          44.140  47.513  46.196  0.00  0.00     0.174 HD
ATOM     25  C7  <0> d          51.657  49.017  38.640  0.00  0.00     0.252 C 
ATOM     26  O1  <0> d          52.269  50.062  38.529  0.00  0.00    -0.268 OA
ATOM     27  N1  <0> d          50.852  48.598  37.645  0.00  0.00    -0.342 N 
ATOM     28  H7  <0> d          50.365  47.764  37.734  0.00  0.00     0.163 HD
ATOM     29  C8  <0> d          50.713  49.400  36.427  0.00  0.00     0.186 C 
ATOM     30  C9  <0> d          49.374  50.139  36.451  0.00  0.00     0.046 C 
ATOM     31  C10 <0> d          49.605  51.601  36.833  0.00  0.00     0.116 C 
ATOM     32  C11 <0> d          50.711  52.174  35.986  0.00  0.00     0.172 C 
ATOM     33  O2  <0> d          51.694  52.641  36.511  0.00  0.00    -0.648 OA
ATOM     34  O5  <0> d          50.606  52.164  34.647  0.00  0.00    -0.648 OA
ATOM     35  C12 <0> d          50.767  48.497  35.221  0.00  0.00     0.196 C 
ATOM     36  O3  <0> d          50.139  47.466  35.211  0.00  0.00    -0.646 OA
ATOM     37  O6  <0> d          51.513  48.840  34.159  0.00  0.00    -0.646 OA
ENDMDL
MODEL 6
REMARK VINA RESULT:      -9.1      1.854      3.206
ATOM      1  C1  <0> d          49.410  48.533  39.683  0.00  0.00     0.019 A 
ATOM      2  C2  <0> d          49.549  47.328  40.333  0.00  0.00     0.030 A 
ATOM      3  C3  <0> d          50.817  46.818  40.597  0.00  0.00     0.028 A 
ATOM      4  C4  <0> d          51.949  47.526  40.201  0.00  0.00     0.030 A 
ATOM      5  C5  <0> d          51.818  48.731  39.550  0.00  0.00     0.019 A 
ATOM      6  C6  <0> d          50.545  49.246  39.285  0.00  0.00     0.032 A 
ATOM      7  N2  <0> d          50.954  45.601  41.254  0.00  0.00    -0.384 N 
ATOM      8  H12 <0> d          50.532  44.806  40.893  0.00  0.00     0.160 HD
ATOM      9  C13 <0> d          51.733  45.520  42.492  0.00  0.00     0.180 C 
ATOM     10  C14 <0> d          51.026  46.282  43.582  0.00  0.00     0.070 A 
ATOM     11  N4  <0> d          49.819  45.912  43.962  0.00  0.00    -0.241 NA
ATOM     12  C17 <0> d          49.200  46.582  44.925  0.00  0.00     0.174 A 
ATOM     13  C16 <0> d          49.829  47.693  45.532  0.00  0.00     0.202 A 
ATOM     14  C18 <0> d          47.855  46.206  45.390  0.00  0.00     0.292 A 
ATOM     15  N3  <0> d          51.048  48.056  45.132  0.00  0.00    -0.237 NA
ATOM     16  N6  <0> d          49.181  48.361  46.505  0.00  0.00    -0.043 NA
ATOM     17  C15 <0> d          51.649  47.374  44.176  0.00  0.00     0.147 A 
ATOM     18  C19 <0> d          47.983  48.009  46.904  0.00  0.00     0.703 A 
ATOM     19  N5  <0> d          47.303  46.952  46.374  0.00  0.00    -0.152 N 
ATOM     20  H2  <0> d          46.390  46.727  46.717  0.00  0.00     0.187 HD
ATOM     21  O4  <0> d          47.261  45.260  44.907  0.00  0.00    -0.265 OA
ATOM     22  N7  <0> d          47.386  48.738  47.900  0.00  0.00    -0.233 N 
ATOM     23  H16 <0> d          47.911  49.045  48.655  0.00  0.00     0.174 HD
ATOM     24  H17 <0> d          46.441  48.945  47.848  0.00  0.00     0.174 HD
ATOM     25  C7  <0> d          50.401  50.540  38.593  0.00  0.00     0.252 C 
ATOM     26  O1  <0> d          49.396  51.205  38.750  0.00  0.00    -0.268 OA
ATOM     27  N1  <0> d          51.385  50.986  37.788  0.00  0.00    -0.342 N 
ATOM     28  H7  <0> d          52.188  50.455  37.663  0.00  0.00     0.163 HD
ATOM     29  C8  <0> d          51.244  52.272  37.100  0.00  0.00     0.186 C 
ATOM     30  C9  <0> d          51.473  52.077  35.600  0.00  0.00     0.046 C 
ATOM     31  C10 <0> d          50.702  50.848  35.121  0.00  0.00     0.116 C 
ATOM     32  C11 <0> d          51.674  49.780  34.691  0.00  0.00     0.172 C 
ATOM     33  O2  <0> d          52.697  49.610  35.311  0.00  0.00    -0.648 OA
ATOM     34  O5  <0> d          51.404  49.018  33.619  0.00  0.00    -0.648 OA
ATOM     35  C12 <0> d          52.258  53.245  37.641  0.00  0.00     0.196 C 
ATOM     36  O3  <0> d          52.811  53.021  38.692  0.00  0.00    -0.646 OA
ATOM     37  O6  <0> d          52.549  54.363  36.956  0.00  0.00    -0.646 OA
ENDMDL
MODEL 7
REMARK VINA RESULT:      -9.1      2.809      9.953
ATOM      1  C1  <0> d          49.955  48.753  43.404  0.00  0.00     0.019 A 
ATOM      2  C2  <0> d          50.709  49.136  42.319  0.00  0.00     0.030 A 
ATOM      3  C3  <0> d          51.912  48.492  42.041  0.00  0.00     0.028 A 
ATOM      4  C4  <0> d          52.355  47.459  42.862  0.00  0.00     0.030 A 
ATOM      5  C5  <0> d          51.605  47.070  43.949  0.00  0.00     0.019 A 
ATOM      6  C6  <0> d          50.396  47.715  44.229  0.00  0.00     0.032 A 
ATOM      7  N2  <0> d          52.672  48.882  40.945  0.00  0.00    -0.384 N 
ATOM      8  H12 <0> d          53.409  48.328  40.645  0.00  0.00     0.160 HD
ATOM      9  C13 <0> d          52.360  50.130  40.244  0.00  0.00     0.180 C 
ATOM     10  C14 <0> d          51.992  49.825  38.815  0.00  0.00     0.070 A 
ATOM     11  N4  <0> d          51.763  50.813  37.973  0.00  0.00    -0.241 NA
ATOM     12  C17 <0> d          51.444  50.542  36.715  0.00  0.00     0.174 A 
ATOM     13  C16 <0> d          51.341  49.199  36.283  0.00  0.00     0.202 A 
ATOM     14  C18 <0> d          51.184  51.608  35.733  0.00  0.00     0.292 A 
ATOM     15  N3  <0> d          51.572  48.213  37.149  0.00  0.00    -0.237 NA
ATOM     16  N6  <0> d          51.012  48.947  35.002  0.00  0.00    -0.043 NA
ATOM     17  C15 <0> d          51.893  48.503  38.396  0.00  0.00     0.147 A 
ATOM     18  C19 <0> d          50.785  49.912  34.145  0.00  0.00     0.703 A 
ATOM     19  N5  <0> d          50.862  51.234  34.474  0.00  0.00    -0.152 N 
ATOM     20  H2  <0> d          50.678  51.930  33.780  0.00  0.00     0.187 HD
ATOM     21  O4  <0> d          51.256  52.783  36.043  0.00  0.00    -0.265 OA
ATOM     22  N7  <0> d          50.455  49.577  32.857  0.00  0.00    -0.233 N 
ATOM     23  H16 <0> d          49.568  49.239  32.658  0.00  0.00     0.174 HD
ATOM     24  H17 <0> d          51.107  49.679  32.148  0.00  0.00     0.174 HD
ATOM     25  C7  <0> d          49.588  47.297  45.390  0.00  0.00     0.252 C 
ATOM     26  O1  <0> d          50.126  47.070  46.456  0.00  0.00    -0.268 OA
ATOM     27  N1  <0> d          48.252  47.166  45.267  0.00  0.00    -0.342 N 
ATOM     28  H7  <0> d          47.823  47.347  44.416  0.00  0.00     0.163 HD
ATOM     29  C8  <0> d          47.448  46.751  46.419  0.00  0.00     0.186 C 
ATOM     30  C9  <0> d          46.648  45.498  46.059  0.00  0.00     0.046 C 
ATOM     31  C10 <0> d          47.608  44.343  45.775  0.00  0.00     0.116 C 
ATOM     32  C11 <0> d          47.556  43.995  44.310  0.00  0.00     0.172 C 
ATOM     33  O2  <0> d          48.141  44.680  43.505  0.00  0.00    -0.648 OA
ATOM     34  O5  <0> d          46.860  42.923  43.898  0.00  0.00    -0.648 OA
ATOM     35  C12 <0> d          46.501  47.860  46.797  0.00  0.00     0.196 C 
ATOM     36  O3  <0> d          46.933  48.945  47.108  0.00  0.00    -0.646 OA
ATOM     37  O6  <0> d          45.176  47.644  46.787  0.00  0.00    -0.646 OA
ENDMDL
MODEL 8
REMARK VINA RESULT:      -9.0      5.683      9.757
ATOM      1  C1  <0> d          46.912  51.402  45.798  0.00  0.00     0.019 A 
ATOM      2  C2  <0> d          45.701  51.975  45.486  0.00  0.00     0.030 A 
ATOM      3  C3  <0> d          44.656  51.185  45.012  0.00  0.00     0.028 A 
ATOM      4  C4  <0> d          44.836  49.814  44.852  0.00  0.00     0.030 A 
ATOM      5  C5  <0> d          46.045  49.234  45.163  0.00  0.00     0.019 A 
ATOM      6  C6  <0> d          47.095  50.025  45.639  0.00  0.00     0.032 A 
ATOM      7  N2  <0> d          43.434  51.766  44.697  0.00  0.00    -0.384 N 
ATOM      8  H12 <0> d          43.386  52.456  44.017  0.00  0.00     0.160 HD
ATOM      9  C13 <0> d          42.217  51.338  45.394  0.00  0.00     0.180 C 
ATOM     10  C14 <0> d          41.263  50.721  44.405  0.00  0.00     0.070 A 
ATOM     11  N4  <0> d          41.494  49.511  43.939  0.00  0.00    -0.241 NA
ATOM     12  C17 <0> d          40.650  48.969  43.072  0.00  0.00     0.174 A 
ATOM     13  C16 <0> d          39.512  49.691  42.644  0.00  0.00     0.202 A 
ATOM     14  C18 <0> d          40.860  47.617  42.526  0.00  0.00     0.292 A 
ATOM     15  N3  <0> d          39.296  50.916  43.123  0.00  0.00    -0.237 NA
ATOM     16  N6  <0> d          38.670  49.123  41.760  0.00  0.00    -0.043 NA
ATOM     17  C15 <0> d          40.145  51.436  43.988  0.00  0.00     0.147 A 
ATOM     18  C19 <0> d          38.877  47.918  41.287  0.00  0.00     0.703 A 
ATOM     19  N5  <0> d          39.946  47.151  41.644  0.00  0.00    -0.152 N 
ATOM     20  H2  <0> d          40.055  46.237  41.252  0.00  0.00     0.187 HD
ATOM     21  O4  <0> d          41.820  46.945  42.855  0.00  0.00    -0.265 OA
ATOM     22  N7  <0> d          37.976  47.406  40.390  0.00  0.00    -0.233 N 
ATOM     23  H16 <0> d          37.624  47.968  39.682  0.00  0.00     0.174 HD
ATOM     24  H17 <0> d          37.689  46.483  40.464  0.00  0.00     0.174 HD
ATOM     25  C7  <0> d          48.391  49.407  45.979  0.00  0.00     0.252 C 
ATOM     26  O1  <0> d          49.128  49.943  46.782  0.00  0.00    -0.268 OA
ATOM     27  N1  <0> d          48.755  48.247  45.398  0.00  0.00    -0.342 N 
ATOM     28  H7  <0> d          48.166  47.819  44.758  0.00  0.00     0.163 HD
ATOM     29  C8  <0> d          50.041  47.631  45.735  0.00  0.00     0.186 C 
ATOM     30  C9  <0> d          50.856  47.417  44.458  0.00  0.00     0.046 C 
ATOM     31  C10 <0> d          49.915  47.373  43.254  0.00  0.00     0.116 C 
ATOM     32  C11 <0> d          49.747  45.947  42.799  0.00  0.00     0.172 C 
ATOM     33  O2  <0> d          50.556  45.452  42.050  0.00  0.00    -0.648 OA
ATOM     34  O5  <0> d          48.699  45.224  43.227  0.00  0.00    -0.648 OA
ATOM     35  C12 <0> d          49.803  46.304  46.407  0.00  0.00     0.196 C 
ATOM     36  O3  <0> d          50.735  45.577  46.657  0.00  0.00    -0.646 OA
ATOM     37  O6  <0> d          48.554  45.928  46.727  0.00  0.00    -0.646 OA
ENDMDL
MODEL 9
REMARK VINA RESULT:      -9.0      6.884     11.299
ATOM      1  C1  <0> d          43.810  49.334  45.177  0.00  0.00     0.019 A 
ATOM      2  C2  <0> d          42.712  50.143  45.360  0.00  0.00     0.030 A 
ATOM      3  C3  <0> d          42.835  51.525  45.247  0.00  0.00     0.028 A 
ATOM      4  C4  <0> d          44.071  52.093  44.949  0.00  0.00     0.030 A 
ATOM      5  C5  <0> d          45.174  51.290  44.764  0.00  0.00     0.019 A 
ATOM      6  C6  <0> d          45.052  49.901  44.877  0.00  0.00     0.032 A 
ATOM      7  N2  <0> d          41.725  52.339  45.433  0.00  0.00    -0.384 N 
ATOM      8  H12 <0> d          41.427  52.556  46.331  0.00  0.00     0.160 HD
ATOM      9  C13 <0> d          41.001  52.869  44.274  0.00  0.00     0.180 C 
ATOM     10  C14 <0> d          39.879  51.932  43.912  0.00  0.00     0.070 A 
ATOM     11  N4  <0> d          39.618  51.682  42.645  0.00  0.00    -0.241 NA
ATOM     12  C17 <0> d          38.632  50.853  42.329  0.00  0.00     0.174 A 
ATOM     13  C16 <0> d          37.859  50.250  43.347  0.00  0.00     0.202 A 
ATOM     14  C18 <0> d          38.304  50.535  40.929  0.00  0.00     0.292 A 
ATOM     15  N3  <0> d          38.133  50.519  44.624  0.00  0.00    -0.237 NA
ATOM     16  N6  <0> d          36.860  49.415  43.004  0.00  0.00    -0.043 NA
ATOM     17  C15 <0> d          39.121  51.342  44.918  0.00  0.00     0.147 A 
ATOM     18  C19 <0> d          36.586  49.146  41.751  0.00  0.00     0.703 A 
ATOM     19  N5  <0> d          37.279  49.681  40.705  0.00  0.00    -0.152 N 
ATOM     20  H2  <0> d          37.027  49.442  39.767  0.00  0.00     0.187 HD
ATOM     21  O4  <0> d          38.933  51.021  40.007  0.00  0.00    -0.265 OA
ATOM     22  N7  <0> d          35.554  48.286  41.479  0.00  0.00    -0.233 N 
ATOM     23  H16 <0> d          35.718  47.480  40.966  0.00  0.00     0.174 HD
ATOM     24  H17 <0> d          34.660  48.484  41.799  0.00  0.00     0.174 HD
ATOM     25  C7  <0> d          46.230  49.038  44.674  0.00  0.00     0.252 C 
ATOM     26  O1  <0> d          46.691  48.892  43.559  0.00  0.00    -0.268 OA
ATOM     27  N1  <0> d          46.794  48.411  45.724  0.00  0.00    -0.342 N 
ATOM     28  H7  <0> d          46.426  48.528  46.614  0.00  0.00     0.163 HD
ATOM     29  C8  <0> d          47.965  47.553  45.524  0.00  0.00     0.186 C 
ATOM     30  C9  <0> d          47.726  46.198  46.191  0.00  0.00     0.046 C 
ATOM     31  C10 <0> d          48.629  45.145  45.547  0.00  0.00     0.116 C 
ATOM     32  C11 <0> d          47.799  43.961  45.125  0.00  0.00     0.172 C 
ATOM     33  O2  <0> d          48.063  42.858  45.542  0.00  0.00    -0.648 OA
ATOM     34  O5  <0> d          46.765  44.131  44.285  0.00  0.00    -0.648 OA
ATOM     35  C12 <0> d          49.178  48.207  46.135  0.00  0.00     0.196 C 
ATOM     36  O3  <0> d          49.145  48.591  47.280  0.00  0.00    -0.646 OA
ATOM     37  O6  <0> d          50.295  48.362  45.407  0.00  0.00    -0.646 OA
ENDMDL
MODEL 10
REMARK VINA RESULT:      -8.8      6.763     10.759
ATOM      1  C1  <0> d          44.665  49.455  45.361  0.00  0.00     0.019 A 
ATOM      2  C2  <0> d          43.354  49.764  45.082  0.00  0.00     0.030 A 
ATOM      3  C3  <0> d          42.978  51.089  44.871  0.00  0.00     0.028 A 
ATOM      4  C4  <0> d          43.929  52.103  44.943  0.00  0.00     0.030 A 
ATOM      5  C5  <0> d          45.242  51.800  45.222  0.00  0.00     0.019 A 
ATOM      6  C6  <0> d          45.622  50.471  45.434  0.00  0.00     0.032 A 
ATOM      7  N2  <0> d          41.653  51.398  44.590  0.00  0.00    -0.384 N 
ATOM      8  H12 <0> d          40.979  51.319  45.282  0.00  0.00     0.160 HD
ATOM      9  C13 <0> d          41.273  51.842  43.246  0.00  0.00     0.180 C 
ATOM     10  C14 <0> d          40.004  51.149  42.827  0.00  0.00     0.070 A 
ATOM     11  N4  <0> d          40.064  49.974  42.233  0.00  0.00    -0.241 NA
ATOM     12  C17 <0> d          38.945  49.363  41.870  0.00  0.00     0.174 A 
ATOM     13  C16 <0> d          37.693  49.975  42.111  0.00  0.00     0.202 A 
ATOM     14  C18 <0> d          38.958  48.048  41.209  0.00  0.00     0.292 A 
ATOM     15  N3  <0> d          37.650  51.166  42.709  0.00  0.00    -0.237 NA
ATOM     16  N6  <0> d          36.569  49.339  41.731  0.00  0.00    -0.043 NA
ATOM     17  C15 <0> d          38.775  51.755  43.067  0.00  0.00     0.147 A 
ATOM     18  C19 <0> d          36.604  48.168  41.143  0.00  0.00     0.703 A 
ATOM     19  N5  <0> d          37.765  47.505  40.872  0.00  0.00    -0.152 N 
ATOM     20  H2  <0> d          37.734  46.613  40.421  0.00  0.00     0.187 HD
ATOM     21  O4  <0> d          40.002  47.469  40.974  0.00  0.00    -0.265 OA
ATOM     22  N7  <0> d          35.418  47.582  40.785  0.00  0.00    -0.233 N 
ATOM     23  H16 <0> d          34.614  47.763  41.297  0.00  0.00     0.174 HD
ATOM     24  H17 <0> d          35.382  46.988  40.020  0.00  0.00     0.174 HD
ATOM     25  C7  <0> d          47.030  50.143  45.727  0.00  0.00     0.252 C 
ATOM     26  O1  <0> d          47.779  51.002  46.149  0.00  0.00    -0.268 OA
ATOM     27  N1  <0> d          47.485  48.891  45.525  0.00  0.00    -0.342 N 
ATOM     28  H7  <0> d          46.886  48.206  45.189  0.00  0.00     0.163 HD
ATOM     29  C8  <0> d          48.883  48.563  45.817  0.00  0.00     0.186 C 
ATOM     30  C9  <0> d          49.476  47.773  44.649  0.00  0.00     0.046 C 
ATOM     31  C10 <0> d          50.997  47.927  44.648  0.00  0.00     0.116 C 
ATOM     32  C11 <0> d          51.641  46.566  44.701  0.00  0.00     0.172 C 
ATOM     33  O2  <0> d          52.000  46.028  43.681  0.00  0.00    -0.648 OA
ATOM     34  O5  <0> d          51.816  45.951  45.882  0.00  0.00    -0.648 OA
ATOM     35  C12 <0> d          48.954  47.734  47.072  0.00  0.00     0.196 C 
ATOM     36  O3  <0> d          49.273  48.247  48.118  0.00  0.00    -0.646 OA
ATOM     37  O6  <0> d          48.662  46.424  47.029  0.00  0.00    -0.646 OA
ENDMDL
