MODEL
REMARK VINA RESULT:      -8.9    
REMARK AD4  RESULT:      -9.63   
REMARK FIN. RESULT:      -9.26   
ATOM      1  C1  <0> d          50.862  45.840  39.770  0.00  0.00     0.019 A 
ATOM      2  C2  <0> d          51.050  46.106  38.433  0.00  0.00     0.030 A 
ATOM      3  C3  <0> d          51.759  47.237  38.040  0.00  0.00     0.028 A 
ATOM      4  C4  <0> d          52.280  48.103  38.997  0.00  0.00     0.030 A 
ATOM      5  C5  <0> d          52.095  47.845  40.335  0.00  0.00     0.019 A 
ATOM      6  C6  <0> d          51.383  46.709  40.734  0.00  0.00     0.032 A 
ATOM      7  N2  <0> d          51.947  47.502  36.688  0.00  0.00    -0.384 N 
ATOM      8  H12 <0> d          52.839  47.475  36.308  0.00  0.00     0.160 HD
ATOM      9  C13 <0> d          50.798  47.824  35.838  0.00  0.00     0.180 C 
ATOM     10  C14 <0> d          50.322  49.220  36.144  0.00  0.00     0.070 A 
ATOM     11  N4  <0> d          49.757  49.479  37.306  0.00  0.00    -0.241 NA
ATOM     12  C17 <0> d          49.343  50.710  37.575  0.00  0.00     0.174 A 
ATOM     13  C16 <0> d          49.497  51.736  36.613  0.00  0.00     0.202 A 
ATOM     14  C18 <0> d          48.710  51.053  38.859  0.00  0.00     0.292 A 
ATOM     15  N3  <0> d          50.066  51.454  35.441  0.00  0.00    -0.237 NA
ATOM     16  N6  <0> d          49.066  52.978  36.905  0.00  0.00    -0.043 NA
ATOM     17  C15 <0> d          50.477  50.226  35.195  0.00  0.00     0.147 A 
ATOM     18  C19 <0> d          48.506  53.261  38.056  0.00  0.00     0.703 A 
ATOM     19  N5  <0> d          48.316  52.335  39.040  0.00  0.00    -0.152 N 
ATOM     20  H2  <0> d          47.884  52.605  39.900  0.00  0.00     0.187 HD
ATOM     21  O4  <0> d          48.549  50.215  39.728  0.00  0.00    -0.265 OA
ATOM     22  N7  <0> d          48.091  54.548  38.281  0.00  0.00    -0.233 N 
ATOM     23  H16 <0> d          48.626  55.291  37.963  0.00  0.00     0.174 HD
ATOM     24  H17 <0> d          47.265  54.714  38.759  0.00  0.00     0.174 HD
ATOM     25  C7  <0> d          51.189  46.424  42.169  0.00  0.00     0.252 C 
ATOM     26  O1  <0> d          51.833  45.544  42.706  0.00  0.00    -0.268 OA
ATOM     27  N1  <0> d          50.296  47.138  42.882  0.00  0.00    -0.342 N 
ATOM     28  H7  <0> d          49.782  47.840  42.453  0.00  0.00     0.163 HD
ATOM     29  C8  <0> d          50.103  46.855  44.306  0.00  0.00     0.186 C 
ATOM     30  C9  <0> d          48.677  46.349  44.537  0.00  0.00     0.046 C 
ATOM     31  C10 <0> d          48.717  44.870  44.927  0.00  0.00     0.116 C 
ATOM     32  C11 <0> d          47.433  44.499  45.623  0.00  0.00     0.172 C 
ATOM     33  O2  <0> d          46.740  45.360  46.112  0.00  0.00    -0.648 OA
ATOM     34  O5  <0> d          47.059  43.212  45.701  0.00  0.00    -0.648 OA
ATOM     35  C12 <0> d          50.323  48.115  45.104  0.00  0.00     0.196 C 
ATOM     36  O3  <0> d          49.636  48.347  46.070  0.00  0.00    -0.646 OA
ATOM     37  O6  <0> d          51.284  48.979  44.741  0.00  0.00    -0.646 OA
ENDMDL
MODEL
REMARK VINA RESULT:      -9.0    
REMARK AD4  RESULT:      -9.25   
REMARK FIN. RESULT:      -9.12   
ATOM      1  C1  <0> d          44.993  50.724  44.950  0.00  0.00     0.019 A 
ATOM      2  C2  <0> d          43.755  51.320  44.991  0.00  0.00     0.030 A 
ATOM      3  C3  <0> d          42.618  50.592  44.648  0.00  0.00     0.028 A 
ATOM      4  C4  <0> d          42.732  49.260  44.260  0.00  0.00     0.030 A 
ATOM      5  C5  <0> d          43.969  48.658  44.216  0.00  0.00     0.019 A 
ATOM      6  C6  <0> d          45.112  49.387  44.561  0.00  0.00     0.032 A 
ATOM      7  N2  <0> d          41.368  51.198  44.690  0.00  0.00    -0.384 N 
ATOM      8  H12 <0> d          40.850  51.183  45.510  0.00  0.00     0.160 HD
ATOM      9  C13 <0> d          40.832  51.858  43.498  0.00  0.00     0.180 C 
ATOM     10  C14 <0> d          39.641  51.089  42.988  0.00  0.00     0.070 A 
ATOM     11  N4  <0> d          39.825  49.959  42.335  0.00  0.00    -0.241 NA
ATOM     12  C17 <0> d          38.775  49.280  41.891  0.00  0.00     0.174 A 
ATOM     13  C16 <0> d          37.467  49.773  42.109  0.00  0.00     0.202 A 
ATOM     14  C18 <0> d          38.925  48.010  41.160  0.00  0.00     0.292 A 
ATOM     15  N3  <0> d          37.302  50.920  42.768  0.00  0.00    -0.237 NA
ATOM     16  N6  <0> d          36.416  49.070  41.647  0.00  0.00    -0.043 NA
ATOM     17  C15 <0> d          38.358  51.578  43.207  0.00  0.00     0.147 A 
ATOM     18  C19 <0> d          36.572  47.942  40.999  0.00  0.00     0.703 A 
ATOM     19  N5  <0> d          37.795  47.392  40.743  0.00  0.00    -0.152 N 
ATOM     20  H2  <0> d          37.856  46.528  40.244  0.00  0.00     0.187 HD
ATOM     21  O4  <0> d          40.023  47.533  40.940  0.00  0.00    -0.265 OA
ATOM     22  N7  <0> d          35.455  47.282  40.558  0.00  0.00    -0.233 N 
ATOM     23  H16 <0> d          35.426  46.313  40.577  0.00  0.00     0.174 HD
ATOM     24  H17 <0> d          34.696  47.784  40.225  0.00  0.00     0.174 HD
ATOM     25  C7  <0> d          46.438  48.742  44.521  0.00  0.00     0.252 C 
ATOM     26  O1  <0> d          47.163  48.902  43.559  0.00  0.00    -0.268 OA
ATOM     27  N1  <0> d          46.844  47.974  45.552  0.00  0.00    -0.342 N 
ATOM     28  H7  <0> d          46.265  47.846  46.319  0.00  0.00     0.163 HD
ATOM     29  C8  <0> d          48.161  47.333  45.513  0.00  0.00     0.186 C 
ATOM     30  C9  <0> d          48.057  45.917  46.084  0.00  0.00     0.046 C 
ATOM     31  C10 <0> d          46.725  45.294  45.662  0.00  0.00     0.116 C 
ATOM     32  C11 <0> d          46.969  43.917  45.102  0.00  0.00     0.172 C 
ATOM     33  O2  <0> d          46.292  43.508  44.188  0.00  0.00    -0.648 OA
ATOM     34  O5  <0> d          47.939  43.145  45.618  0.00  0.00    -0.648 OA
ATOM     35  C12 <0> d          49.136  48.136  46.336  0.00  0.00     0.196 C 
ATOM     36  O3  <0> d          49.676  49.104  45.857  0.00  0.00    -0.646 OA
ATOM     37  O6  <0> d          49.403  47.775  47.601  0.00  0.00    -0.646 OA
ENDMDL
MODEL
REMARK VINA RESULT:      -9.0    
REMARK AD4  RESULT:      -8.44   
REMARK FIN. RESULT:      -8.72   
ATOM      1  C1  <0> d          46.912  51.402  45.798  0.00  0.00     0.019 A 
ATOM      2  C2  <0> d          45.701  51.975  45.486  0.00  0.00     0.030 A 
ATOM      3  C3  <0> d          44.656  51.185  45.012  0.00  0.00     0.028 A 
ATOM      4  C4  <0> d          44.836  49.814  44.852  0.00  0.00     0.030 A 
ATOM      5  C5  <0> d          46.045  49.234  45.163  0.00  0.00     0.019 A 
ATOM      6  C6  <0> d          47.095  50.025  45.639  0.00  0.00     0.032 A 
ATOM      7  N2  <0> d          43.434  51.766  44.697  0.00  0.00    -0.384 N 
ATOM      8  H12 <0> d          43.386  52.456  44.017  0.00  0.00     0.160 HD
ATOM      9  C13 <0> d          42.217  51.338  45.394  0.00  0.00     0.180 C 
ATOM     10  C14 <0> d          41.263  50.721  44.405  0.00  0.00     0.070 A 
ATOM     11  N4  <0> d          41.494  49.511  43.939  0.00  0.00    -0.241 NA
ATOM     12  C17 <0> d          40.650  48.969  43.072  0.00  0.00     0.174 A 
ATOM     13  C16 <0> d          39.512  49.691  42.644  0.00  0.00     0.202 A 
ATOM     14  C18 <0> d          40.860  47.617  42.526  0.00  0.00     0.292 A 
ATOM     15  N3  <0> d          39.296  50.916  43.123  0.00  0.00    -0.237 NA
ATOM     16  N6  <0> d          38.670  49.123  41.760  0.00  0.00    -0.043 NA
ATOM     17  C15 <0> d          40.145  51.436  43.988  0.00  0.00     0.147 A 
ATOM     18  C19 <0> d          38.877  47.918  41.287  0.00  0.00     0.703 A 
ATOM     19  N5  <0> d          39.946  47.151  41.644  0.00  0.00    -0.152 N 
ATOM     20  H2  <0> d          40.055  46.237  41.252  0.00  0.00     0.187 HD
ATOM     21  O4  <0> d          41.820  46.945  42.855  0.00  0.00    -0.265 OA
ATOM     22  N7  <0> d          37.976  47.406  40.390  0.00  0.00    -0.233 N 
ATOM     23  H16 <0> d          37.624  47.968  39.682  0.00  0.00     0.174 HD
ATOM     24  H17 <0> d          37.689  46.483  40.464  0.00  0.00     0.174 HD
ATOM     25  C7  <0> d          48.391  49.407  45.979  0.00  0.00     0.252 C 
ATOM     26  O1  <0> d          49.128  49.943  46.782  0.00  0.00    -0.268 OA
ATOM     27  N1  <0> d          48.755  48.247  45.398  0.00  0.00    -0.342 N 
ATOM     28  H7  <0> d          48.166  47.819  44.758  0.00  0.00     0.163 HD
ATOM     29  C8  <0> d          50.041  47.631  45.735  0.00  0.00     0.186 C 
ATOM     30  C9  <0> d          50.856  47.417  44.458  0.00  0.00     0.046 C 
ATOM     31  C10 <0> d          49.915  47.373  43.254  0.00  0.00     0.116 C 
ATOM     32  C11 <0> d          49.747  45.947  42.799  0.00  0.00     0.172 C 
ATOM     33  O2  <0> d          50.556  45.452  42.050  0.00  0.00    -0.648 OA
ATOM     34  O5  <0> d          48.699  45.224  43.227  0.00  0.00    -0.648 OA
ATOM     35  C12 <0> d          49.803  46.304  46.407  0.00  0.00     0.196 C 
ATOM     36  O3  <0> d          50.735  45.577  46.657  0.00  0.00    -0.646 OA
ATOM     37  O6  <0> d          48.554  45.928  46.727  0.00  0.00    -0.646 OA
ENDMDL
MODEL
REMARK VINA RESULT:      -8.8    
REMARK AD4  RESULT:      -8.18   
REMARK FIN. RESULT:      -8.48   
ATOM      1  C1  <0> d          45.044  51.460  44.790  0.00  0.00     0.019 A 
ATOM      2  C2  <0> d          43.979  52.298  45.029  0.00  0.00     0.030 A 
ATOM      3  C3  <0> d          42.752  51.772  45.422  0.00  0.00     0.028 A 
ATOM      4  C4  <0> d          42.599  50.396  45.576  0.00  0.00     0.030 A 
ATOM      5  C5  <0> d          43.660  49.554  45.339  0.00  0.00     0.019 A 
ATOM      6  C6  <0> d          44.894  50.079  44.944  0.00  0.00     0.032 A 
ATOM      7  N2  <0> d          41.677  52.620  45.661  0.00  0.00    -0.384 N 
ATOM      8  H12 <0> d          41.831  53.511  46.012  0.00  0.00     0.160 HD
ATOM      9  C13 <0> d          40.311  52.169  45.383  0.00  0.00     0.180 C 
ATOM     10  C14 <0> d          40.032  52.289  43.907  0.00  0.00     0.070 A 
ATOM     11  N4  <0> d          39.742  51.211  43.207  0.00  0.00    -0.241 NA
ATOM     12  C17 <0> d          39.492  51.320  41.909  0.00  0.00     0.174 A 
ATOM     13  C16 <0> d          39.548  52.585  41.280  0.00  0.00     0.202 A 
ATOM     14  C18 <0> d          39.157  50.149  41.083  0.00  0.00     0.292 A 
ATOM     15  N3  <0> d          39.848  53.664  42.003  0.00  0.00    -0.237 NA
ATOM     16  N6  <0> d          39.294  52.673  39.960  0.00  0.00    -0.043 NA
ATOM     17  C15 <0> d          40.089  53.536  43.294  0.00  0.00     0.147 A 
ATOM     18  C19 <0> d          38.999  51.617  39.243  0.00  0.00     0.703 A 
ATOM     19  N5  <0> d          38.923  50.360  39.766  0.00  0.00    -0.152 N 
ATOM     20  H2  <0> d          38.692  49.588  39.173  0.00  0.00     0.187 HD
ATOM     21  O4  <0> d          39.093  49.033  41.564  0.00  0.00    -0.265 OA
ATOM     22  N7  <0> d          38.753  51.784  37.905  0.00  0.00    -0.233 N 
ATOM     23  H16 <0> d          38.584  51.013  37.344  0.00  0.00     0.174 HD
ATOM     24  H17 <0> d          38.749  52.674  37.521  0.00  0.00     0.174 HD
ATOM     25  C7  <0> d          46.036  49.178  44.696  0.00  0.00     0.252 C 
ATOM     26  O1  <0> d          46.386  48.939  43.556  0.00  0.00    -0.268 OA
ATOM     27  N1  <0> d          46.688  48.619  45.734  0.00  0.00    -0.342 N 
ATOM     28  H7  <0> d          46.409  48.809  46.642  0.00  0.00     0.163 HD
ATOM     29  C8  <0> d          47.822  47.723  45.488  0.00  0.00     0.186 C 
ATOM     30  C9  <0> d          47.502  46.332  46.038  0.00  0.00     0.046 C 
ATOM     31  C10 <0> d          48.370  45.291  45.331  0.00  0.00     0.116 C 
ATOM     32  C11 <0> d          47.565  44.038  45.099  0.00  0.00     0.172 C 
ATOM     33  O2  <0> d          46.504  44.100  44.523  0.00  0.00    -0.648 OA
ATOM     34  O5  <0> d          48.026  42.854  45.532  0.00  0.00    -0.648 OA
ATOM     35  C12 <0> d          49.049  48.265  46.178  0.00  0.00     0.196 C 
ATOM     36  O3  <0> d          49.786  49.023  45.592  0.00  0.00    -0.646 OA
ATOM     37  O6  <0> d          49.322  47.905  47.442  0.00  0.00    -0.646 OA
ENDMDL
MODEL
REMARK VINA RESULT:      -9.1    
REMARK AD4  RESULT:      -7.21   
REMARK FIN. RESULT:      -8.10   
ATOM      1  C1  <0> d          49.955  48.753  43.404  0.00  0.00     0.019 A 
ATOM      2  C2  <0> d          50.709  49.136  42.319  0.00  0.00     0.030 A 
ATOM      3  C3  <0> d          51.912  48.492  42.041  0.00  0.00     0.028 A 
ATOM      4  C4  <0> d          52.355  47.459  42.862  0.00  0.00     0.030 A 
ATOM      5  C5  <0> d          51.605  47.070  43.949  0.00  0.00     0.019 A 
ATOM      6  C6  <0> d          50.396  47.715  44.229  0.00  0.00     0.032 A 
ATOM      7  N2  <0> d          52.672  48.882  40.945  0.00  0.00    -0.384 N 
ATOM      8  H12 <0> d          53.409  48.328  40.645  0.00  0.00     0.160 HD
ATOM      9  C13 <0> d          52.360  50.130  40.244  0.00  0.00     0.180 C 
ATOM     10  C14 <0> d          51.992  49.825  38.815  0.00  0.00     0.070 A 
ATOM     11  N4  <0> d          51.763  50.813  37.973  0.00  0.00    -0.241 NA
ATOM     12  C17 <0> d          51.444  50.542  36.715  0.00  0.00     0.174 A 
ATOM     13  C16 <0> d          51.341  49.199  36.283  0.00  0.00     0.202 A 
ATOM     14  C18 <0> d          51.184  51.608  35.733  0.00  0.00     0.292 A 
ATOM     15  N3  <0> d          51.572  48.213  37.149  0.00  0.00    -0.237 NA
ATOM     16  N6  <0> d          51.012  48.947  35.002  0.00  0.00    -0.043 NA
ATOM     17  C15 <0> d          51.893  48.503  38.396  0.00  0.00     0.147 A 
ATOM     18  C19 <0> d          50.785  49.912  34.145  0.00  0.00     0.703 A 
ATOM     19  N5  <0> d          50.862  51.234  34.474  0.00  0.00    -0.152 N 
ATOM     20  H2  <0> d          50.678  51.930  33.780  0.00  0.00     0.187 HD
ATOM     21  O4  <0> d          51.256  52.783  36.043  0.00  0.00    -0.265 OA
ATOM     22  N7  <0> d          50.455  49.577  32.857  0.00  0.00    -0.233 N 
ATOM     23  H16 <0> d          49.568  49.239  32.658  0.00  0.00     0.174 HD
ATOM     24  H17 <0> d          51.107  49.679  32.148  0.00  0.00     0.174 HD
ATOM     25  C7  <0> d          49.588  47.297  45.390  0.00  0.00     0.252 C 
ATOM     26  O1  <0> d          50.126  47.070  46.456  0.00  0.00    -0.268 OA
ATOM     27  N1  <0> d          48.252  47.166  45.267  0.00  0.00    -0.342 N 
ATOM     28  H7  <0> d          47.823  47.347  44.416  0.00  0.00     0.163 HD
ATOM     29  C8  <0> d          47.448  46.751  46.419  0.00  0.00     0.186 C 
ATOM     30  C9  <0> d          46.648  45.498  46.059  0.00  0.00     0.046 C 
ATOM     31  C10 <0> d          47.608  44.343  45.775  0.00  0.00     0.116 C 
ATOM     32  C11 <0> d          47.556  43.995  44.310  0.00  0.00     0.172 C 
ATOM     33  O2  <0> d          48.141  44.680  43.505  0.00  0.00    -0.648 OA
ATOM     34  O5  <0> d          46.860  42.923  43.898  0.00  0.00    -0.648 OA
ATOM     35  C12 <0> d          46.501  47.860  46.797  0.00  0.00     0.196 C 
ATOM     36  O3  <0> d          46.933  48.945  47.108  0.00  0.00    -0.646 OA
ATOM     37  O6  <0> d          45.176  47.644  46.787  0.00  0.00    -0.646 OA
ENDMDL
