MODEL 1
REMARK VINA RESULT:      -7.3      0.000      0.000
ATOM      1  N1  <0> d          51.384  53.558  36.435  0.00  0.00    -0.072 N 
ATOM      2  H37 <0> d          51.759  53.776  35.505  0.00  0.00     0.277 HD
ATOM      3  H38 <0> d          50.532  54.108  36.597  0.00  0.00     0.277 HD
ATOM      4  C16 <0> d          52.389  53.909  37.458  0.00  0.00     0.232 C 
ATOM      5  C15 <0> d          52.307  52.902  38.607  0.00  0.00     0.027 C 
ATOM      6  C14 <0> d          53.687  52.751  39.251  0.00  0.00     0.002 C 
ATOM      7  C13 <0> d          53.889  51.298  39.687  0.00  0.00     0.002 C 
ATOM      8  C12 <0> d          52.622  50.494  39.387  0.00  0.00     0.026 C 
ATOM      9  C11 <0> d          52.081  49.891  40.684  0.00  0.00     0.167 C 
ATOM     10  O1  <0> d          52.477  48.521  40.773  0.00  0.00    -0.391 OA
ATOM     11  C10 <0> d          51.631  47.725  41.606  0.00  0.00     0.167 C 
ATOM     12  C9  <0> d          51.127  46.517  40.816  0.00  0.00     0.027 C 
ATOM     13  C8  <0> d          51.923  46.388  39.515  0.00  0.00     0.007 C 
ATOM     14  C7  <0> d          51.027  45.799  38.425  0.00  0.00     0.038 C 
ATOM     15  C4  <0> d          51.021  46.718  37.230  0.00  0.00    -0.058 A 
ATOM     16  C3  <0> d          51.966  47.719  37.123  0.00  0.00     0.007 A 
ATOM     17  C2  <0> d          51.962  48.563  36.027  0.00  0.00     0.001 A 
ATOM     18  C1  <0> d          51.009  48.402  35.038  0.00  0.00     0.000 A 
ATOM     19  C6  <0> d          50.064  47.401  35.145  0.00  0.00     0.001 A 
ATOM     20  C5  <0> d          50.072  46.555  36.238  0.00  0.00     0.007 A 
ATOM     21  C17 <0> d          51.060  52.122  36.507  0.00  0.00     0.268 C 
ATOM     22  C18 <0> d          49.539  51.952  36.528  0.00  0.00     0.176 C 
ATOM     23  C19 <0> d          49.144  51.099  37.707  0.00  0.00    -0.027 A 
ATOM     24  C24 <0> d          49.103  51.648  38.974  0.00  0.00     0.022 A 
ATOM     25  C23 <0> d          48.742  50.868  40.055  0.00  0.00    -0.001 A 
ATOM     26  C22 <0> d          48.427  49.530  39.869  0.00  0.00     0.074 A 
ATOM     27  C21 <0> d          48.465  48.980  38.595  0.00  0.00     0.038 A 
ATOM     28  C20 <0> d          48.826  49.767  37.517  0.00  0.00     0.012 A 
ATOM     29  C25 <0> d          48.696  51.467  41.437  0.00  0.00     0.205 C 
ATOM     30  O2  <0> d          47.336  51.610  41.849  0.00  0.00    -0.396 OA
ATOM     31  H34 <0> d          46.756  50.898  41.545  0.00  0.00     0.209 HD
ATOM     32  O3  <0> d          48.076  48.758  40.932  0.00  0.00    -0.360 OA
ATOM     33  H35 <0> d          47.412  49.161  41.507  0.00  0.00     0.217 HD
ATOM     34  O4  <0> d          48.918  53.234  36.640  0.00  0.00    -0.389 OA
ATOM     35  H36 <0> d          48.552  53.567  35.809  0.00  0.00     0.210 HD
ENDMDL
MODEL 1
REMARK VINA RESULT:      -7.8      0.000      0.000
ATOM      1  N1  <0> d          50.374  47.223  42.484  0.00  0.00    -0.072 N 
ATOM      2  H37 <0> d          49.989  46.721  41.675  0.00  0.00     0.277 HD
ATOM      3  H38 <0> d          49.626  47.752  42.946  0.00  0.00     0.277 HD
ATOM      4  C16 <0> d          51.417  48.159  42.020  0.00  0.00     0.232 C 
ATOM      5  C15 <0> d          52.265  47.476  40.946  0.00  0.00     0.027 C 
ATOM      6  C14 <0> d          51.533  47.533  39.605  0.00  0.00     0.002 C 
ATOM      7  C13 <0> d          51.146  46.117  39.174  0.00  0.00     0.002 C 
ATOM      8  C12 <0> d          50.617  46.146  37.738  0.00  0.00     0.026 C 
ATOM      9  C11 <0> d          49.398  47.068  37.662  0.00  0.00     0.167 C 
ATOM     10  O1  <0> d          49.168  47.440  36.302  0.00  0.00    -0.391 OA
ATOM     11  C10 <0> d          50.365  47.683  35.557  0.00  0.00     0.167 C 
ATOM     12  C9  <0> d          50.543  49.188  35.355  0.00  0.00     0.027 C 
ATOM     13  C8  <0> d          51.599  49.713  36.331  0.00  0.00     0.007 C 
ATOM     14  C7  <0> d          50.918  50.532  37.428  0.00  0.00     0.038 C 
ATOM     15  C4  <0> d          51.922  51.463  38.058  0.00  0.00    -0.058 A 
ATOM     16  C3  <0> d          52.807  50.986  39.005  0.00  0.00     0.007 A 
ATOM     17  C2  <0> d          53.730  51.838  39.583  0.00  0.00     0.001 A 
ATOM     18  C1  <0> d          53.765  53.169  39.212  0.00  0.00     0.000 A 
ATOM     19  C6  <0> d          52.880  53.648  38.265  0.00  0.00     0.001 A 
ATOM     20  C5  <0> d          51.961  52.793  37.683  0.00  0.00     0.007 A 
ATOM     21  C17 <0> d          50.943  46.251  43.435  0.00  0.00     0.268 C 
ATOM     22  C18 <0> d          50.864  46.829  44.850  0.00  0.00     0.176 C 
ATOM     23  C19 <0> d          49.451  46.716  45.360  0.00  0.00    -0.027 A 
ATOM     24  C24 <0> d          48.788  45.504  45.295  0.00  0.00     0.022 A 
ATOM     25  C23 <0> d          47.492  45.400  45.762  0.00  0.00    -0.001 A 
ATOM     26  C22 <0> d          46.854  46.512  46.290  0.00  0.00     0.074 A 
ATOM     27  C21 <0> d          47.522  47.726  46.358  0.00  0.00     0.038 A 
ATOM     28  C20 <0> d          48.819  47.825  45.890  0.00  0.00     0.012 A 
ATOM     29  C25 <0> d          46.770  44.078  45.693  0.00  0.00     0.205 C 
ATOM     30  O2  <0> d          45.585  44.225  44.909  0.00  0.00    -0.396 OA
ATOM     31  H34 <0> d          45.418  43.488  44.305  0.00  0.00     0.209 HD
ATOM     32  O3  <0> d          45.576  46.412  46.746  0.00  0.00    -0.360 OA
ATOM     33  H35 <0> d          45.017  47.164  46.512  0.00  0.00     0.217 HD
ATOM     34  O4  <0> d          51.741  46.101  45.710  0.00  0.00    -0.389 OA
ATOM     35  H36 <0> d          52.637  46.465  45.760  0.00  0.00     0.210 HD
ENDMDL
MODEL 2
REMARK VINA RESULT:      -7.7      2.187      4.989
ATOM      1  N1  <0> d          50.619  50.360  41.606  0.00  0.00    -0.072 N 
ATOM      2  H37 <0> d          50.408  51.252  42.068  0.00  0.00     0.277 HD
ATOM      3  H38 <0> d          51.340  49.860  42.139  0.00  0.00     0.277 HD
ATOM      4  C16 <0> d          51.120  50.626  40.244  0.00  0.00     0.232 C 
ATOM      5  C15 <0> d          52.569  50.147  40.138  0.00  0.00     0.027 C 
ATOM      6  C14 <0> d          53.390  51.173  39.355  0.00  0.00     0.002 C 
ATOM      7  C13 <0> d          52.641  52.506  39.320  0.00  0.00     0.002 C 
ATOM      8  C12 <0> d          52.402  52.921  37.867  0.00  0.00     0.026 C 
ATOM      9  C11 <0> d          50.934  53.312  37.682  0.00  0.00     0.167 C 
ATOM     10  O1  <0> d          50.557  53.113  36.319  0.00  0.00    -0.391 OA
ATOM     11  C10 <0> d          50.172  51.769  36.013  0.00  0.00     0.167 C 
ATOM     12  C9  <0> d          50.990  51.263  34.825  0.00  0.00     0.027 C 
ATOM     13  C8  <0> d          51.281  49.771  35.003  0.00  0.00     0.007 C 
ATOM     14  C7  <0> d          51.792  49.517  36.423  0.00  0.00     0.038 C 
ATOM     15  C4  <0> d          51.105  48.303  36.995  0.00  0.00    -0.058 A 
ATOM     16  C3  <0> d          49.750  48.119  36.797  0.00  0.00     0.007 A 
ATOM     17  C2  <0> d          49.119  47.005  37.320  0.00  0.00     0.001 A 
ATOM     18  C1  <0> d          49.844  46.077  38.043  0.00  0.00     0.000 A 
ATOM     19  C6  <0> d          51.200  46.261  38.242  0.00  0.00     0.001 A 
ATOM     20  C5  <0> d          51.832  47.373  37.713  0.00  0.00     0.007 A 
ATOM     21  C17 <0> d          49.396  49.539  41.552  0.00  0.00     0.268 C 
ATOM     22  C18 <0> d          49.781  48.082  41.287  0.00  0.00     0.176 C 
ATOM     23  C19 <0> d          50.560  47.547  42.462  0.00  0.00    -0.027 A 
ATOM     24  C24 <0> d          49.919  47.308  43.663  0.00  0.00     0.022 A 
ATOM     25  C23 <0> d          50.631  46.818  44.740  0.00  0.00    -0.001 A 
ATOM     26  C22 <0> d          51.991  46.572  44.618  0.00  0.00     0.074 A 
ATOM     27  C21 <0> d          52.631  46.808  43.410  0.00  0.00     0.038 A 
ATOM     28  C20 <0> d          51.913  47.298  42.335  0.00  0.00     0.012 A 
ATOM     29  C25 <0> d          49.932  46.557  46.050  0.00  0.00     0.205 C 
ATOM     30  O2  <0> d          49.703  45.154  46.196  0.00  0.00    -0.396 OA
ATOM     31  H34 <0> d          48.923  44.831  45.723  0.00  0.00     0.209 HD
ATOM     32  O3  <0> d          52.695  46.094  45.680  0.00  0.00    -0.360 OA
ATOM     33  H35 <0> d          52.820  46.738  46.389  0.00  0.00     0.217 HD
ATOM     34  O4  <0> d          48.598  47.303  41.105  0.00  0.00    -0.389 OA
ATOM     35  H36 <0> d          47.970  47.362  41.839  0.00  0.00     0.210 HD
ENDMDL
MODEL 3
REMARK VINA RESULT:      -7.7      2.249      3.161
ATOM      1  N1  <0> d          50.105  50.775  42.135  0.00  0.00    -0.072 N 
ATOM      2  H37 <0> d          50.072  51.762  41.851  0.00  0.00     0.277 HD
ATOM      3  H38 <0> d          50.830  50.649  42.850  0.00  0.00     0.277 HD
ATOM      4  C16 <0> d          50.431  49.944  40.959  0.00  0.00     0.232 C 
ATOM      5  C15 <0> d          51.783  49.265  41.184  0.00  0.00     0.027 C 
ATOM      6  C14 <0> d          51.940  48.102  40.203  0.00  0.00     0.002 C 
ATOM      7  C13 <0> d          51.001  48.309  39.013  0.00  0.00     0.002 C 
ATOM      8  C12 <0> d          51.509  47.505  37.815  0.00  0.00     0.026 C 
ATOM      9  C11 <0> d          52.020  48.464  36.737  0.00  0.00     0.167 C 
ATOM     10  O1  <0> d          51.236  48.309  35.553  0.00  0.00    -0.391 OA
ATOM     11  C10 <0> d          51.074  49.515  34.802  0.00  0.00     0.167 C 
ATOM     12  C9  <0> d          50.412  50.577  35.681  0.00  0.00     0.027 C 
ATOM     13  C8  <0> d          51.212  51.879  35.600  0.00  0.00     0.007 C 
ATOM     14  C7  <0> d          50.827  52.788  36.769  0.00  0.00     0.038 C 
ATOM     15  C4  <0> d          52.006  52.943  37.695  0.00  0.00    -0.058 A 
ATOM     16  C3  <0> d          52.340  51.923  38.565  0.00  0.00     0.007 A 
ATOM     17  C2  <0> d          53.423  52.064  39.414  0.00  0.00     0.001 A 
ATOM     18  C1  <0> d          54.169  53.227  39.393  0.00  0.00     0.000 A 
ATOM     19  C6  <0> d          53.836  54.248  38.523  0.00  0.00     0.001 A 
ATOM     20  C5  <0> d          52.756  54.104  37.670  0.00  0.00     0.007 A 
ATOM     21  C17 <0> d          48.797  50.385  42.692  0.00  0.00     0.268 C 
ATOM     22  C18 <0> d          48.711  48.858  42.747  0.00  0.00     0.176 C 
ATOM     23  C19 <0> d          48.837  48.399  44.176  0.00  0.00    -0.027 A 
ATOM     24  C24 <0> d          48.421  49.223  45.205  0.00  0.00     0.022 A 
ATOM     25  C23 <0> d          48.536  48.804  46.516  0.00  0.00    -0.001 A 
ATOM     26  C22 <0> d          49.075  47.558  46.801  0.00  0.00     0.074 A 
ATOM     27  C21 <0> d          49.487  46.730  45.767  0.00  0.00     0.038 A 
ATOM     28  C20 <0> d          49.369  47.154  44.456  0.00  0.00     0.012 A 
ATOM     29  C25 <0> d          48.082  49.703  47.638  0.00  0.00     0.205 C 
ATOM     30  O2  <0> d          49.195  50.014  48.479  0.00  0.00    -0.396 OA
ATOM     31  H34 <0> d          48.958  50.172  49.403  0.00  0.00     0.209 HD
ATOM     32  O3  <0> d          49.194  47.145  48.091  0.00  0.00    -0.360 OA
ATOM     33  H35 <0> d          49.908  47.578  48.577  0.00  0.00     0.217 HD
ATOM     34  O4  <0> d          47.454  48.433  42.218  0.00  0.00    -0.389 OA
ATOM     35  H36 <0> d          46.823  49.153  42.075  0.00  0.00     0.210 HD
ENDMDL
MODEL 4
REMARK VINA RESULT:      -7.6      1.473      3.484
ATOM      1  N1  <0> d          52.176  47.047  42.646  0.00  0.00    -0.072 N 
ATOM      2  H37 <0> d          52.627  47.720  43.277  0.00  0.00     0.277 HD
ATOM      3  H38 <0> d          52.751  46.200  42.582  0.00  0.00     0.277 HD
ATOM      4  C16 <0> d          52.048  47.650  41.305  0.00  0.00     0.232 C 
ATOM      5  C15 <0> d          50.590  48.048  41.070  0.00  0.00     0.027 C 
ATOM      6  C14 <0> d          50.538  49.307  40.202  0.00  0.00     0.002 C 
ATOM      7  C13 <0> d          51.949  49.875  40.044  0.00  0.00     0.002 C 
ATOM      8  C12 <0> d          51.873  51.267  39.412  0.00  0.00     0.026 C 
ATOM      9  C11 <0> d          50.444  51.531  38.933  0.00  0.00     0.167 C 
ATOM     10  O1  <0> d          50.483  52.214  37.679  0.00  0.00    -0.391 OA
ATOM     11  C10 <0> d          51.663  51.957  36.913  0.00  0.00     0.167 C 
ATOM     12  C9  <0> d          51.283  51.738  35.449  0.00  0.00     0.027 C 
ATOM     13  C8  <0> d          51.026  50.249  35.204  0.00  0.00     0.007 C 
ATOM     14  C7  <0> d          51.966  49.418  36.080  0.00  0.00     0.038 C 
ATOM     15  C4  <0> d          51.201  48.274  36.694  0.00  0.00    -0.058 A 
ATOM     16  C3  <0> d          51.881  47.234  37.299  0.00  0.00     0.007 A 
ATOM     17  C2  <0> d          51.180  46.184  37.864  0.00  0.00     0.001 A 
ATOM     18  C1  <0> d          49.798  46.175  37.821  0.00  0.00     0.000 A 
ATOM     19  C6  <0> d          49.118  47.215  37.216  0.00  0.00     0.001 A 
ATOM     20  C5  <0> d          49.819  48.268  36.656  0.00  0.00     0.007 A 
ATOM     21  C17 <0> d          50.847  46.696  43.179  0.00  0.00     0.268 C 
ATOM     22  C18 <0> d          50.818  46.985  44.682  0.00  0.00     0.176 C 
ATOM     23  C19 <0> d          49.417  46.792  45.202  0.00  0.00    -0.027 A 
ATOM     24  C24 <0> d          48.840  45.536  45.183  0.00  0.00     0.022 A 
ATOM     25  C23 <0> d          47.556  45.357  45.660  0.00  0.00    -0.001 A 
ATOM     26  C22 <0> d          46.843  46.441  46.152  0.00  0.00     0.074 A 
ATOM     27  C21 <0> d          47.425  47.699  46.175  0.00  0.00     0.038 A 
ATOM     28  C20 <0> d          48.711  47.872  45.697  0.00  0.00     0.012 A 
ATOM     29  C25 <0> d          46.927  43.988  45.639  0.00  0.00     0.205 C 
ATOM     30  O2  <0> d          45.734  44.023  44.854  0.00  0.00    -0.396 OA
ATOM     31  H34 <0> d          45.078  44.663  45.162  0.00  0.00     0.209 HD
ATOM     32  O3  <0> d          45.576  46.268  46.617  0.00  0.00    -0.360 OA
ATOM     33  H35 <0> d          45.388  45.370  46.918  0.00  0.00     0.217 HD
ATOM     34  O4  <0> d          51.704  46.090  45.356  0.00  0.00    -0.389 OA
ATOM     35  H36 <0> d          52.551  46.487  45.603  0.00  0.00     0.210 HD
ENDMDL
MODEL 5
REMARK VINA RESULT:      -7.6      2.295      4.512
ATOM      1  N1  <0> d          50.660  50.050  42.030  0.00  0.00    -0.072 N 
ATOM      2  H37 <0> d          50.642  50.900  42.606  0.00  0.00     0.277 HD
ATOM      3  H38 <0> d          51.444  49.455  42.321  0.00  0.00     0.277 HD
ATOM      4  C16 <0> d          50.837  50.428  40.614  0.00  0.00     0.232 C 
ATOM      5  C15 <0> d          52.077  49.726  40.058  0.00  0.00     0.027 C 
ATOM      6  C14 <0> d          53.128  50.771  39.679  0.00  0.00     0.002 C 
ATOM      7  C13 <0> d          52.458  52.137  39.532  0.00  0.00     0.002 C 
ATOM      8  C12 <0> d          52.429  52.537  38.055  0.00  0.00     0.026 C 
ATOM      9  C11 <0> d          51.136  53.298  37.757  0.00  0.00     0.167 C 
ATOM     10  O1  <0> d          50.814  53.165  36.372  0.00  0.00    -0.391 OA
ATOM     11  C10 <0> d          50.252  51.896  36.026  0.00  0.00     0.167 C 
ATOM     12  C9  <0> d          50.878  51.400  34.722  0.00  0.00     0.027 C 
ATOM     13  C8  <0> d          51.056  49.881  34.786  0.00  0.00     0.007 C 
ATOM     14  C7  <0> d          51.775  49.506  36.083  0.00  0.00     0.038 C 
ATOM     15  C4  <0> d          51.104  48.305  36.700  0.00  0.00    -0.058 A 
ATOM     16  C3  <0> d          51.869  47.294  37.251  0.00  0.00     0.007 A 
ATOM     17  C2  <0> d          51.254  46.193  37.818  0.00  0.00     0.001 A 
ATOM     18  C1  <0> d          49.875  46.104  37.834  0.00  0.00     0.000 A 
ATOM     19  C6  <0> d          49.110  47.115  37.284  0.00  0.00     0.001 A 
ATOM     20  C5  <0> d          49.725  48.219  36.721  0.00  0.00     0.007 A 
ATOM     21  C17 <0> d          49.396  49.313  42.210  0.00  0.00     0.268 C 
ATOM     22  C18 <0> d          49.709  47.856  42.555  0.00  0.00     0.176 C 
ATOM     23  C19 <0> d          49.555  47.647  44.039  0.00  0.00    -0.027 A 
ATOM     24  C24 <0> d          48.869  48.575  44.800  0.00  0.00     0.022 A 
ATOM     25  C23 <0> d          48.727  48.385  46.160  0.00  0.00    -0.001 A 
ATOM     26  C22 <0> d          49.279  47.265  46.765  0.00  0.00     0.074 A 
ATOM     27  C21 <0> d          49.963  46.333  46.000  0.00  0.00     0.038 A 
ATOM     28  C20 <0> d          50.102  46.527  44.638  0.00  0.00     0.012 A 
ATOM     29  C25 <0> d          47.978  49.397  46.989  0.00  0.00     0.205 C 
ATOM     30  O2  <0> d          46.902  48.751  47.672  0.00  0.00    -0.396 OA
ATOM     31  H34 <0> d          46.112  48.621  47.129  0.00  0.00     0.209 HD
ATOM     32  O3  <0> d          49.144  47.079  48.106  0.00  0.00    -0.360 OA
ATOM     33  H35 <0> d          49.470  46.224  48.417  0.00  0.00     0.217 HD
ATOM     34  O4  <0> d          48.807  46.997  41.856  0.00  0.00    -0.389 OA
ATOM     35  H36 <0> d          47.873  47.192  42.017  0.00  0.00     0.210 HD
ENDMDL
MODEL 6
REMARK VINA RESULT:      -7.5      1.574      2.507
ATOM      1  N1  <0> d          52.440  47.885  40.973  0.00  0.00    -0.072 N 
ATOM      2  H37 <0> d          51.844  48.690  40.747  0.00  0.00     0.277 HD
ATOM      3  H38 <0> d          53.421  48.185  41.005  0.00  0.00     0.277 HD
ATOM      4  C16 <0> d          52.281  46.855  39.929  0.00  0.00     0.232 C 
ATOM      5  C15 <0> d          50.794  46.691  39.607  0.00  0.00     0.027 C 
ATOM      6  C14 <0> d          50.264  47.977  38.971  0.00  0.00     0.002 C 
ATOM      7  C13 <0> d          49.348  47.626  37.798  0.00  0.00     0.002 C 
ATOM      8  C12 <0> d          50.137  46.836  36.751  0.00  0.00     0.026 C 
ATOM      9  C11 <0> d          50.194  47.634  35.446  0.00  0.00     0.167 C 
ATOM     10  O1  <0> d          50.200  49.031  35.744  0.00  0.00    -0.391 OA
ATOM     11  C10 <0> d          51.394  49.706  35.336  0.00  0.00     0.167 C 
ATOM     12  C9  <0> d          51.129  51.210  35.264  0.00  0.00     0.027 C 
ATOM     13  C8  <0> d          50.004  51.578  36.234  0.00  0.00     0.007 C 
ATOM     14  C7  <0> d          50.353  52.886  36.947  0.00  0.00     0.038 C 
ATOM     15  C4  <0> d          51.513  52.656  37.882  0.00  0.00    -0.058 A 
ATOM     16  C3  <0> d          51.547  51.525  38.674  0.00  0.00     0.007 A 
ATOM     17  C2  <0> d          52.611  51.311  39.531  0.00  0.00     0.001 A 
ATOM     18  C1  <0> d          53.641  52.231  39.595  0.00  0.00     0.000 A 
ATOM     19  C6  <0> d          53.607  53.363  38.802  0.00  0.00     0.001 A 
ATOM     20  C5  <0> d          52.545  53.573  37.941  0.00  0.00     0.007 A 
ATOM     21  C17 <0> d          52.052  47.346  42.289  0.00  0.00     0.268 C 
ATOM     22  C18 <0> d          50.903  48.184  42.855  0.00  0.00     0.176 C 
ATOM     23  C19 <0> d          50.031  47.317  43.727  0.00  0.00    -0.027 A 
ATOM     24  C24 <0> d          49.571  47.799  44.938  0.00  0.00     0.022 A 
ATOM     25  C23 <0> d          48.772  47.005  45.738  0.00  0.00    -0.001 A 
ATOM     26  C22 <0> d          48.437  45.723  45.329  0.00  0.00     0.074 A 
ATOM     27  C21 <0> d          48.896  45.243  44.111  0.00  0.00     0.038 A 
ATOM     28  C20 <0> d          49.695  46.042  43.313  0.00  0.00     0.012 A 
ATOM     29  C25 <0> d          48.269  47.530  47.059  0.00  0.00     0.205 C 
ATOM     30  O2  <0> d          49.135  47.091  48.106  0.00  0.00    -0.396 OA
ATOM     31  H34 <0> d          49.728  47.777  48.442  0.00  0.00     0.209 HD
ATOM     32  O3  <0> d          47.655  44.938  46.118  0.00  0.00    -0.360 OA
ATOM     33  H35 <0> d          47.324  44.145  45.677  0.00  0.00     0.217 HD
ATOM     34  O4  <0> d          51.435  49.258  43.631  0.00  0.00    -0.389 OA
ATOM     35  H36 <0> d          51.938  49.905  43.116  0.00  0.00     0.210 HD
ENDMDL
MODEL 7
REMARK VINA RESULT:      -7.5      1.778      2.848
ATOM      1  N1  <0> d          51.289  46.579  41.796  0.00  0.00    -0.072 N 
ATOM      2  H37 <0> d          51.947  47.319  42.069  0.00  0.00     0.277 HD
ATOM      3  H38 <0> d          51.613  45.680  42.170  0.00  0.00     0.277 HD
ATOM      4  C16 <0> d          51.231  46.501  40.324  0.00  0.00     0.232 C 
ATOM      5  C15 <0> d          51.734  47.818  39.730  0.00  0.00     0.027 C 
ATOM      6  C14 <0> d          51.909  47.662  38.218  0.00  0.00     0.002 C 
ATOM      7  C13 <0> d          50.933  46.604  37.699  0.00  0.00     0.002 C 
ATOM      8  C12 <0> d          50.398  47.031  36.330  0.00  0.00     0.026 C 
ATOM      9  C11 <0> d          51.215  48.214  35.808  0.00  0.00     0.167 C 
ATOM     10  O1  <0> d          50.374  49.065  35.028  0.00  0.00    -0.391 OA
ATOM     11  C10 <0> d          50.257  50.395  35.542  0.00  0.00     0.167 C 
ATOM     12  C9  <0> d          49.287  50.399  36.724  0.00  0.00     0.027 C 
ATOM     13  C8  <0> d          49.866  51.248  37.858  0.00  0.00     0.007 C 
ATOM     14  C7  <0> d          50.545  52.488  37.272  0.00  0.00     0.038 C 
ATOM     15  C4  <0> d          51.842  52.740  37.997  0.00  0.00    -0.058 A 
ATOM     16  C3  <0> d          52.334  51.800  38.882  0.00  0.00     0.007 A 
ATOM     17  C2  <0> d          53.524  52.030  39.547  0.00  0.00     0.001 A 
ATOM     18  C1  <0> d          54.222  53.202  39.325  0.00  0.00     0.000 A 
ATOM     19  C6  <0> d          53.731  54.144  38.440  0.00  0.00     0.001 A 
ATOM     20  C5  <0> d          52.543  53.910  37.771  0.00  0.00     0.007 A 
ATOM     21  C17 <0> d          49.957  46.885  42.347  0.00  0.00     0.268 C 
ATOM     22  C18 <0> d          49.651  45.915  43.490  0.00  0.00     0.176 C 
ATOM     23  C19 <0> d          49.281  46.696  44.725  0.00  0.00    -0.027 A 
ATOM     24  C24 <0> d          49.383  48.074  44.727  0.00  0.00     0.022 A 
ATOM     25  C23 <0> d          49.044  48.791  45.858  0.00  0.00    -0.001 A 
ATOM     26  C22 <0> d          48.608  48.126  46.995  0.00  0.00     0.074 A 
ATOM     27  C21 <0> d          48.501  46.743  46.989  0.00  0.00     0.038 A 
ATOM     28  C20 <0> d          48.841  46.031  45.854  0.00  0.00     0.012 A 
ATOM     29  C25 <0> d          49.155  50.294  45.860  0.00  0.00     0.205 C 
ATOM     30  O2  <0> d          50.499  50.672  45.554  0.00  0.00    -0.396 OA
ATOM     31  H34 <0> d          51.058  49.939  45.263  0.00  0.00     0.209 HD
ATOM     32  O3  <0> d          48.278  48.830  48.111  0.00  0.00    -0.360 OA
ATOM     33  H35 <0> d          47.643  48.380  48.684  0.00  0.00     0.217 HD
ATOM     34  O4  <0> d          48.564  45.068  43.117  0.00  0.00    -0.389 OA
ATOM     35  H36 <0> d          47.905  44.942  43.815  0.00  0.00     0.210 HD
ENDMDL
MODEL 8
REMARK VINA RESULT:      -7.4      1.775      3.972
ATOM      1  N1  <0> d          51.651  45.893  43.489  0.00  0.00    -0.072 N 
ATOM      2  H37 <0> d          52.665  46.031  43.578  0.00  0.00     0.277 HD
ATOM      3  H38 <0> d          51.383  45.018  43.954  0.00  0.00     0.277 HD
ATOM      4  C16 <0> d          51.296  45.813  42.059  0.00  0.00     0.232 C 
ATOM      5  C15 <0> d          51.205  47.228  41.484  0.00  0.00     0.027 C 
ATOM      6  C14 <0> d          49.770  47.503  41.031  0.00  0.00     0.002 C 
ATOM      7  C13 <0> d          49.659  48.948  40.541  0.00  0.00     0.002 C 
ATOM      8  C12 <0> d          50.606  49.837  41.350  0.00  0.00     0.026 C 
ATOM      9  C11 <0> d          50.848  51.145  40.594  0.00  0.00     0.167 C 
ATOM     10  O1  <0> d          52.253  51.369  40.469  0.00  0.00    -0.391 OA
ATOM     11  C10 <0> d          52.762  51.140  39.152  0.00  0.00     0.167 C 
ATOM     12  C9  <0> d          51.868  51.844  38.131  0.00  0.00     0.027 C 
ATOM     13  C8  <0> d          51.379  50.830  37.094  0.00  0.00     0.007 C 
ATOM     14  C7  <0> d          52.218  49.555  37.192  0.00  0.00     0.038 C 
ATOM     15  C4  <0> d          51.306  48.361  37.308  0.00  0.00    -0.058 A 
ATOM     16  C3  <0> d          49.974  48.472  36.960  0.00  0.00     0.007 A 
ATOM     17  C2  <0> d          49.137  47.377  37.065  0.00  0.00     0.001 A 
ATOM     18  C1  <0> d          49.633  46.170  37.520  0.00  0.00     0.000 A 
ATOM     19  C6  <0> d          50.966  46.057  37.868  0.00  0.00     0.001 A 
ATOM     20  C5  <0> d          51.805  47.152  37.758  0.00  0.00     0.007 A 
ATOM     21  C17 <0> d          50.950  47.020  44.130  0.00  0.00     0.268 C 
ATOM     22  C18 <0> d          50.661  46.667  45.591  0.00  0.00     0.176 C 
ATOM     23  C19 <0> d          49.316  45.995  45.689  0.00  0.00    -0.027 A 
ATOM     24  C24 <0> d          48.188  46.746  45.961  0.00  0.00     0.022 A 
ATOM     25  C23 <0> d          46.954  46.132  46.051  0.00  0.00    -0.001 A 
ATOM     26  C22 <0> d          46.848  44.760  45.876  0.00  0.00     0.074 A 
ATOM     27  C21 <0> d          47.981  44.009  45.598  0.00  0.00     0.038 A 
ATOM     28  C20 <0> d          49.213  44.629  45.508  0.00  0.00     0.012 A 
ATOM     29  C25 <0> d          45.724  46.951  46.347  0.00  0.00     0.205 C 
ATOM     30  O2  <0> d          44.911  47.030  45.175  0.00  0.00    -0.396 OA
ATOM     31  H34 <0> d          44.393  46.233  45.000  0.00  0.00     0.209 HD
ATOM     32  O3  <0> d          45.634  44.152  45.969  0.00  0.00    -0.360 OA
ATOM     33  H35 <0> d          45.027  44.378  45.253  0.00  0.00     0.217 HD
ATOM     34  O4  <0> d          51.673  45.781  46.074  0.00  0.00    -0.389 OA
ATOM     35  H36 <0> d          52.552  45.949  45.707  0.00  0.00     0.210 HD
ENDMDL
MODEL 9
REMARK VINA RESULT:      -7.4      1.941      2.595
ATOM      1  N1  <0> d          50.807  49.847  42.241  0.00  0.00    -0.072 N 
ATOM      2  H37 <0> d          50.814  50.801  41.861  0.00  0.00     0.277 HD
ATOM      3  H38 <0> d          51.242  49.846  43.171  0.00  0.00     0.277 HD
ATOM      4  C16 <0> d          51.577  48.963  41.344  0.00  0.00     0.232 C 
ATOM      5  C15 <0> d          52.095  47.766  42.142  0.00  0.00     0.027 C 
ATOM      6  C14 <0> d          52.027  46.507  41.275  0.00  0.00     0.002 C 
ATOM      7  C13 <0> d          51.889  46.907  39.805  0.00  0.00     0.002 C 
ATOM      8  C12 <0> d          51.118  45.822  39.050  0.00  0.00     0.026 C 
ATOM      9  C11 <0> d          49.982  46.466  38.252  0.00  0.00     0.167 C 
ATOM     10  O1  <0> d          50.440  47.692  37.678  0.00  0.00    -0.391 OA
ATOM     11  C10 <0> d          49.529  48.269  36.739  0.00  0.00     0.167 C 
ATOM     12  C9  <0> d          49.295  49.738  37.092  0.00  0.00     0.027 C 
ATOM     13  C8  <0> d          50.597  50.521  36.911  0.00  0.00     0.007 C 
ATOM     14  C7  <0> d          51.378  50.526  38.226  0.00  0.00     0.038 C 
ATOM     15  C4  <0> d          52.170  51.803  38.337  0.00  0.00    -0.058 A 
ATOM     16  C3  <0> d          53.176  51.913  39.278  0.00  0.00     0.007 A 
ATOM     17  C2  <0> d          53.904  53.084  39.379  0.00  0.00     0.001 A 
ATOM     18  C1  <0> d          53.625  54.145  38.538  0.00  0.00     0.000 A 
ATOM     19  C6  <0> d          52.619  54.036  37.597  0.00  0.00     0.001 A 
ATOM     20  C5  <0> d          51.895  52.862  37.492  0.00  0.00     0.007 A 
ATOM     21  C17 <0> d          49.414  49.378  42.352  0.00  0.00     0.268 C 
ATOM     22  C18 <0> d          48.708  50.161  43.461  0.00  0.00     0.176 C 
ATOM     23  C19 <0> d          48.781  49.384  44.750  0.00  0.00    -0.027 A 
ATOM     24  C24 <0> d          49.130  48.047  44.731  0.00  0.00     0.022 A 
ATOM     25  C23 <0> d          49.197  47.333  45.912  0.00  0.00    -0.001 A 
ATOM     26  C22 <0> d          48.908  47.957  47.116  0.00  0.00     0.074 A 
ATOM     27  C21 <0> d          48.563  49.300  47.134  0.00  0.00     0.038 A 
ATOM     28  C20 <0> d          48.498  50.010  45.949  0.00  0.00     0.012 A 
ATOM     29  C25 <0> d          49.578  45.875  45.890  0.00  0.00     0.205 C 
ATOM     30  O2  <0> d          50.757  45.679  46.673  0.00  0.00    -0.396 OA
ATOM     31  H34 <0> d          50.639  45.074  47.418  0.00  0.00     0.209 HD
ATOM     32  O3  <0> d          48.969  47.255  48.280  0.00  0.00    -0.360 OA
ATOM     33  H35 <0> d          48.933  46.297  48.161  0.00  0.00     0.217 HD
ATOM     34  O4  <0> d          49.348  51.427  43.630  0.00  0.00    -0.389 OA
ATOM     35  H36 <0> d          49.063  51.911  44.419  0.00  0.00     0.210 HD
ENDMDL
MODEL 10
REMARK VINA RESULT:      -7.3      2.216      4.300
ATOM      1  N1  <0> d          49.780  50.415  42.876  0.00  0.00    -0.072 N 
ATOM      2  H37 <0> d          50.781  50.589  43.023  0.00  0.00     0.277 HD
ATOM      3  H38 <0> d          49.629  49.414  42.703  0.00  0.00     0.277 HD
ATOM      4  C16 <0> d          49.322  51.185  41.703  0.00  0.00     0.232 C 
ATOM      5  C15 <0> d          50.010  50.646  40.448  0.00  0.00     0.027 C 
ATOM      6  C14 <0> d          51.520  50.578  40.683  0.00  0.00     0.002 C 
ATOM      7  C13 <0> d          52.240  51.405  39.617  0.00  0.00     0.002 C 
ATOM      8  C12 <0> d          51.221  51.935  38.606  0.00  0.00     0.026 C 
ATOM      9  C11 <0> d          51.886  52.985  37.714  0.00  0.00     0.167 C 
ATOM     10  O1  <0> d          51.130  53.133  36.511  0.00  0.00    -0.391 OA
ATOM     11  C10 <0> d          50.410  51.958  36.129  0.00  0.00     0.167 C 
ATOM     12  C9  <0> d          50.868  51.508  34.742  0.00  0.00     0.027 C 
ATOM     13  C8  <0> d          51.139  50.001  34.757  0.00  0.00     0.007 C 
ATOM     14  C7  <0> d          51.986  49.647  35.981  0.00  0.00     0.038 C 
ATOM     15  C4  <0> d          51.431  48.407  36.635  0.00  0.00    -0.058 A 
ATOM     16  C3  <0> d          50.553  47.596  35.942  0.00  0.00     0.007 A 
ATOM     17  C2  <0> d          50.044  46.457  36.541  0.00  0.00     0.001 A 
ATOM     18  C1  <0> d          50.414  46.133  37.832  0.00  0.00     0.000 A 
ATOM     19  C6  <0> d          51.292  46.945  38.525  0.00  0.00     0.001 A 
ATOM     20  C5  <0> d          51.805  48.081  37.924  0.00  0.00     0.007 A 
ATOM     21  C17 <0> d          49.033  50.820  44.080  0.00  0.00     0.268 C 
ATOM     22  C18 <0> d          49.641  50.131  45.304  0.00  0.00     0.176 C 
ATOM     23  C19 <0> d          48.870  48.872  45.606  0.00  0.00    -0.027 A 
ATOM     24  C24 <0> d          47.492  48.915  45.710  0.00  0.00     0.022 A 
ATOM     25  C23 <0> d          46.784  47.762  45.987  0.00  0.00    -0.001 A 
ATOM     26  C22 <0> d          47.456  46.562  46.168  0.00  0.00     0.074 A 
ATOM     27  C21 <0> d          48.839  46.521  46.059  0.00  0.00     0.038 A 
ATOM     28  C20 <0> d          49.543  47.678  45.780  0.00  0.00     0.012 A 
ATOM     29  C25 <0> d          45.282  47.809  46.099  0.00  0.00     0.205 C 
ATOM     30  O2  <0> d          44.698  47.258  44.917  0.00  0.00    -0.396 OA
ATOM     31  H34 <0> d          45.342  47.008  44.240  0.00  0.00     0.209 HD
ATOM     32  O3  <0> d          46.761  45.426  46.446  0.00  0.00    -0.360 OA
ATOM     33  H35 <0> d          45.935  45.342  45.953  0.00  0.00     0.217 HD
ATOM     34  O4  <0> d          51.005  49.803  45.036  0.00  0.00    -0.389 OA
ATOM     35  H36 <0> d          51.335  49.045  45.540  0.00  0.00     0.210 HD
ENDMDL
