MODEL 1
REMARK VINA RESULT:      -7.8      0.000      0.000
ATOM      1  N1  <0> d          52.029  46.135  43.624  0.00  0.00    -0.072 N 
ATOM      2  H37 <0> d          52.758  45.457  43.873  0.00  0.00     0.277 HD
ATOM      3  H38 <0> d          51.235  45.643  43.198  0.00  0.00     0.277 HD
ATOM      4  C16 <0> d          52.577  47.103  42.654  0.00  0.00     0.232 C 
ATOM      5  C15 <0> d          51.966  46.832  41.277  0.00  0.00     0.027 C 
ATOM      6  C14 <0> d          52.118  48.075  40.398  0.00  0.00     0.002 C 
ATOM      7  C13 <0> d          50.890  48.217  39.498  0.00  0.00     0.002 C 
ATOM      8  C12 <0> d          50.891  47.099  38.453  0.00  0.00     0.026 C 
ATOM      9  C11 <0> d          52.024  47.336  37.453  0.00  0.00     0.167 C 
ATOM     10  O1  <0> d          51.884  48.634  36.874  0.00  0.00    -0.391 OA
ATOM     11  C10 <0> d          51.055  48.662  35.709  0.00  0.00     0.167 C 
ATOM     12  C9  <0> d          50.476  50.067  35.529  0.00  0.00     0.027 C 
ATOM     13  C8  <0> d          50.419  50.774  36.885  0.00  0.00     0.007 C 
ATOM     14  C7  <0> d          50.793  52.246  36.709  0.00  0.00     0.038 C 
ATOM     15  C4  <0> d          51.918  52.594  37.650  0.00  0.00    -0.058 A 
ATOM     16  C3  <0> d          52.363  51.663  38.570  0.00  0.00     0.007 A 
ATOM     17  C2  <0> d          53.395  51.982  39.433  0.00  0.00     0.001 A 
ATOM     18  C1  <0> d          53.981  53.232  39.377  0.00  0.00     0.000 A 
ATOM     19  C6  <0> d          53.536  54.162  38.456  0.00  0.00     0.001 A 
ATOM     20  C5  <0> d          52.507  53.842  37.590  0.00  0.00     0.007 A 
ATOM     21  C17 <0> d          51.574  46.832  44.841  0.00  0.00     0.268 C 
ATOM     22  C18 <0> d          50.547  47.898  44.453  0.00  0.00     0.176 C 
ATOM     23  C19 <0> d          49.214  47.558  45.068  0.00  0.00    -0.027 A 
ATOM     24  C24 <0> d          48.777  46.247  45.089  0.00  0.00     0.022 A 
ATOM     25  C23 <0> d          47.555  45.933  45.651  0.00  0.00    -0.001 A 
ATOM     26  C22 <0> d          46.762  46.937  46.190  0.00  0.00     0.074 A 
ATOM     27  C21 <0> d          47.204  48.251  46.171  0.00  0.00     0.038 A 
ATOM     28  C20 <0> d          48.428  48.559  45.608  0.00  0.00     0.012 A 
ATOM     29  C25 <0> d          47.079  44.503  45.674  0.00  0.00     0.205 C 
ATOM     30  O2  <0> d          45.877  44.390  44.910  0.00  0.00    -0.396 OA
ATOM     31  H34 <0> d          45.107  44.115  45.427  0.00  0.00     0.209 HD
ATOM     32  O3  <0> d          45.557  46.632  46.739  0.00  0.00    -0.360 OA
ATOM     33  H35 <0> d          44.977  46.122  46.157  0.00  0.00     0.217 HD
ATOM     34  O4  <0> d          50.979  49.172  44.928  0.00  0.00    -0.389 OA
ATOM     35  H36 <0> d          50.307  49.654  45.432  0.00  0.00     0.210 HD
ENDMDL
MODEL 2
REMARK VINA RESULT:      -7.8      2.880      7.214
ATOM      1  N1  <0> d          50.531  49.623  42.974  0.00  0.00    -0.072 N 
ATOM      2  H37 <0> d          51.135  48.828  42.739  0.00  0.00     0.277 HD
ATOM      3  H38 <0> d          51.086  50.348  43.445  0.00  0.00     0.277 HD
ATOM      4  C16 <0> d          49.458  49.169  43.880  0.00  0.00     0.232 C 
ATOM      5  C15 <0> d          50.085  48.444  45.074  0.00  0.00     0.027 C 
ATOM      6  C14 <0> d          50.412  47.002  44.681  0.00  0.00     0.002 C 
ATOM      7  C13 <0> d          51.911  46.875  44.407  0.00  0.00     0.002 C 
ATOM      8  C12 <0> d          52.127  46.183  43.059  0.00  0.00     0.026 C 
ATOM      9  C11 <0> d          50.780  45.720  42.502  0.00  0.00     0.167 C 
ATOM     10  O1  <0> d          50.555  46.333  41.232  0.00  0.00    -0.391 OA
ATOM     11  C10 <0> d          51.614  46.129  40.294  0.00  0.00     0.167 C 
ATOM     12  C9  <0> d          51.143  45.178  39.191  0.00  0.00     0.027 C 
ATOM     13  C8  <0> d          51.017  45.947  37.874  0.00  0.00     0.007 C 
ATOM     14  C7  <0> d          51.880  47.209  37.935  0.00  0.00     0.038 C 
ATOM     15  C4  <0> d          51.632  48.046  36.706  0.00  0.00    -0.058 A 
ATOM     16  C3  <0> d          50.580  47.741  35.862  0.00  0.00     0.007 A 
ATOM     17  C2  <0> d          50.354  48.509  34.735  0.00  0.00     0.001 A 
ATOM     18  C1  <0> d          51.178  49.580  34.451  0.00  0.00     0.000 A 
ATOM     19  C6  <0> d          52.229  49.885  35.296  0.00  0.00     0.001 A 
ATOM     20  C5  <0> d          52.454  49.121  36.426  0.00  0.00     0.007 A 
ATOM     21  C17 <0> d          49.953  50.179  41.736  0.00  0.00     0.268 C 
ATOM     22  C18 <0> d          50.735  49.644  40.535  0.00  0.00     0.176 C 
ATOM     23  C19 <0> d          50.366  50.432  39.304  0.00  0.00    -0.027 A 
ATOM     24  C24 <0> d          51.099  51.550  38.954  0.00  0.00     0.022 A 
ATOM     25  C23 <0> d          50.762  52.274  37.827  0.00  0.00    -0.001 A 
ATOM     26  C22 <0> d          49.683  51.881  37.049  0.00  0.00     0.074 A 
ATOM     27  C21 <0> d          48.951  50.756  37.399  0.00  0.00     0.038 A 
ATOM     28  C20 <0> d          49.293  50.035  38.527  0.00  0.00     0.012 A 
ATOM     29  C25 <0> d          51.562  53.493  37.445  0.00  0.00     0.205 C 
ATOM     30  O2  <0> d          51.923  53.412  36.065  0.00  0.00    -0.396 OA
ATOM     31  H34 <0> d          51.263  53.784  35.464  0.00  0.00     0.209 HD
ATOM     32  O3  <0> d          49.346  52.594  35.941  0.00  0.00    -0.360 OA
ATOM     33  H35 <0> d          49.235  53.541  36.102  0.00  0.00     0.217 HD
ATOM     34  O4  <0> d          52.135  49.774  40.781  0.00  0.00    -0.389 OA
ATOM     35  H36 <0> d          52.531  49.006  41.217  0.00  0.00     0.210 HD
ENDMDL
MODEL 3
REMARK VINA RESULT:      -7.8      1.518      3.661
ATOM      1  N1  <0> d          51.306  47.959  43.059  0.00  0.00    -0.072 N 
ATOM      2  H37 <0> d          51.200  48.705  43.757  0.00  0.00     0.277 HD
ATOM      3  H38 <0> d          52.262  47.976  42.682  0.00  0.00     0.277 HD
ATOM      4  C16 <0> d          50.348  48.183  41.959  0.00  0.00     0.232 C 
ATOM      5  C15 <0> d          51.093  48.118  40.624  0.00  0.00     0.027 C 
ATOM      6  C14 <0> d          52.217  49.156  40.617  0.00  0.00     0.002 C 
ATOM      7  C13 <0> d          51.776  50.380  39.812  0.00  0.00     0.002 C 
ATOM      8  C12 <0> d          52.935  51.374  39.720  0.00  0.00     0.026 C 
ATOM      9  C11 <0> d          52.570  52.495  38.746  0.00  0.00     0.167 C 
ATOM     10  O1  <0> d          51.183  52.407  38.418  0.00  0.00    -0.391 OA
ATOM     11  C10 <0> d          50.846  52.993  37.158  0.00  0.00     0.167 C 
ATOM     12  C9  <0> d          51.495  52.188  36.031  0.00  0.00     0.027 C 
ATOM     13  C8  <0> d          50.811  50.824  35.917  0.00  0.00     0.007 C 
ATOM     14  C7  <0> d          51.845  49.715  36.119  0.00  0.00     0.038 C 
ATOM     15  C4  <0> d          51.156  48.471  36.618  0.00  0.00    -0.058 A 
ATOM     16  C3  <0> d          51.906  47.397  37.061  0.00  0.00     0.007 A 
ATOM     17  C2  <0> d          51.274  46.255  37.518  0.00  0.00     0.001 A 
ATOM     18  C1  <0> d          49.894  46.187  37.533  0.00  0.00     0.000 A 
ATOM     19  C6  <0> d          49.145  47.262  37.091  0.00  0.00     0.001 A 
ATOM     20  C5  <0> d          49.776  48.406  36.637  0.00  0.00     0.007 A 
ATOM     21  C17 <0> d          51.057  46.654  43.697  0.00  0.00     0.268 C 
ATOM     22  C18 <0> d          50.927  46.853  45.209  0.00  0.00     0.176 C 
ATOM     23  C19 <0> d          49.476  46.751  45.606  0.00  0.00    -0.027 A 
ATOM     24  C24 <0> d          48.819  45.539  45.516  0.00  0.00     0.022 A 
ATOM     25  C23 <0> d          47.489  45.444  45.878  0.00  0.00    -0.001 A 
ATOM     26  C22 <0> d          46.812  46.569  46.327  0.00  0.00     0.074 A 
ATOM     27  C21 <0> d          47.474  47.784  46.421  0.00  0.00     0.038 A 
ATOM     28  C20 <0> d          48.805  47.873  46.058  0.00  0.00     0.012 A 
ATOM     29  C25 <0> d          46.772  44.122  45.780  0.00  0.00     0.205 C 
ATOM     30  O2  <0> d          45.690  44.236  44.854  0.00  0.00    -0.396 OA
ATOM     31  H34 <0> d          45.780  43.672  44.073  0.00  0.00     0.209 HD
ATOM     32  O3  <0> d          45.502  46.479  46.680  0.00  0.00    -0.360 OA
ATOM     33  H35 <0> d          44.953  46.008  46.039  0.00  0.00     0.217 HD
ATOM     34  O4  <0> d          51.678  45.847  45.889  0.00  0.00    -0.389 OA
ATOM     35  H36 <0> d          52.459  45.544  45.405  0.00  0.00     0.210 HD
ENDMDL
MODEL 4
REMARK VINA RESULT:      -7.8      1.580      2.341
ATOM      1  N1  <0> d          52.204  47.313  40.730  0.00  0.00    -0.072 N 
ATOM      2  H37 <0> d          53.188  47.588  40.828  0.00  0.00     0.277 HD
ATOM      3  H38 <0> d          52.151  46.328  40.446  0.00  0.00     0.277 HD
ATOM      4  C16 <0> d          51.567  48.151  39.694  0.00  0.00     0.232 C 
ATOM      5  C15 <0> d          50.644  47.277  38.842  0.00  0.00     0.027 C 
ATOM      6  C14 <0> d          49.390  48.071  38.471  0.00  0.00     0.002 C 
ATOM      7  C13 <0> d          48.925  47.666  37.071  0.00  0.00     0.002 C 
ATOM      8  C12 <0> d          50.058  46.936  36.348  0.00  0.00     0.026 C 
ATOM      9  C11 <0> d          50.572  47.802  35.198  0.00  0.00     0.167 C 
ATOM     10  O1  <0> d          51.520  48.745  35.699  0.00  0.00    -0.391 OA
ATOM     11  C10 <0> d          51.631  49.932  34.911  0.00  0.00     0.167 C 
ATOM     12  C9  <0> d          50.454  50.861  35.219  0.00  0.00     0.027 C 
ATOM     13  C8  <0> d          50.441  51.190  36.714  0.00  0.00     0.007 C 
ATOM     14  C7  <0> d          50.725  52.680  36.910  0.00  0.00     0.038 C 
ATOM     15  C4  <0> d          51.938  52.848  37.789  0.00  0.00    -0.058 A 
ATOM     16  C3  <0> d          52.680  54.014  37.727  0.00  0.00     0.007 A 
ATOM     17  C2  <0> d          53.793  54.168  38.533  0.00  0.00     0.001 A 
ATOM     18  C1  <0> d          54.165  53.158  39.399  0.00  0.00     0.000 A 
ATOM     19  C6  <0> d          53.422  51.993  39.460  0.00  0.00     0.001 A 
ATOM     20  C5  <0> d          52.307  51.840  38.658  0.00  0.00     0.007 A 
ATOM     21  C17 <0> d          51.517  47.487  42.022  0.00  0.00     0.268 C 
ATOM     22  C18 <0> d          51.291  46.113  42.657  0.00  0.00     0.176 C 
ATOM     23  C19 <0> d          50.325  46.242  43.806  0.00  0.00    -0.027 A 
ATOM     24  C24 <0> d          49.208  45.430  43.865  0.00  0.00     0.022 A 
ATOM     25  C23 <0> d          48.321  45.547  44.917  0.00  0.00    -0.001 A 
ATOM     26  C22 <0> d          48.548  46.487  45.912  0.00  0.00     0.074 A 
ATOM     27  C21 <0> d          49.671  47.298  45.854  0.00  0.00     0.038 A 
ATOM     28  C20 <0> d          50.556  47.176  44.800  0.00  0.00     0.012 A 
ATOM     29  C25 <0> d          47.104  44.661  44.981  0.00  0.00     0.205 C 
ATOM     30  O2  <0> d          45.932  45.471  45.095  0.00  0.00    -0.396 OA
ATOM     31  H34 <0> d          45.967  46.287  44.577  0.00  0.00     0.209 HD
ATOM     32  O3  <0> d          47.674  46.608  46.946  0.00  0.00    -0.360 OA
ATOM     33  H35 <0> d          47.067  45.861  47.038  0.00  0.00     0.217 HD
ATOM     34  O4  <0> d          50.754  45.219  41.682  0.00  0.00    -0.389 OA
ATOM     35  H36 <0> d          51.151  44.336  41.695  0.00  0.00     0.210 HD
ENDMDL
MODEL 5
REMARK VINA RESULT:      -7.7      3.004      4.539
ATOM      1  N1  <0> d          47.965  51.530  42.239  0.00  0.00    -0.072 N 
ATOM      2  H37 <0> d          47.018  51.297  42.559  0.00  0.00     0.277 HD
ATOM      3  H38 <0> d          48.094  52.549  42.265  0.00  0.00     0.277 HD
ATOM      4  C16 <0> d          48.142  51.053  40.854  0.00  0.00     0.232 C 
ATOM      5  C15 <0> d          47.816  49.560  40.792  0.00  0.00     0.027 C 
ATOM      6  C14 <0> d          48.295  48.987  39.457  0.00  0.00     0.002 C 
ATOM      7  C13 <0> d          48.940  50.099  38.627  0.00  0.00     0.002 C 
ATOM      8  C12 <0> d          48.934  49.701  37.149  0.00  0.00     0.026 C 
ATOM      9  C11 <0> d          50.333  49.894  36.563  0.00  0.00     0.167 C 
ATOM     10  O1  <0> d          50.860  48.628  36.165  0.00  0.00    -0.391 OA
ATOM     11  C10 <0> d          49.861  47.661  35.833  0.00  0.00     0.167 C 
ATOM     12  C9  <0> d          50.272  46.293  36.381  0.00  0.00     0.027 C 
ATOM     13  C8  <0> d          49.821  46.169  37.838  0.00  0.00     0.007 C 
ATOM     14  C7  <0> d          51.012  45.764  38.708  0.00  0.00     0.038 C 
ATOM     15  C4  <0> d          51.250  46.820  39.756  0.00  0.00    -0.058 A 
ATOM     16  C3  <0> d          51.914  47.986  39.424  0.00  0.00     0.007 A 
ATOM     17  C2  <0> d          52.133  48.955  40.386  0.00  0.00     0.001 A 
ATOM     18  C1  <0> d          51.689  48.758  41.679  0.00  0.00     0.000 A 
ATOM     19  C6  <0> d          51.025  47.592  42.011  0.00  0.00     0.001 A 
ATOM     20  C5  <0> d          50.802  46.624  41.049  0.00  0.00     0.007 A 
ATOM     21  C17 <0> d          48.952  50.892  43.130  0.00  0.00     0.268 C 
ATOM     22  C18 <0> d          48.701  51.353  44.567  0.00  0.00     0.176 C 
ATOM     23  C19 <0> d          48.803  50.173  45.498  0.00  0.00    -0.027 A 
ATOM     24  C24 <0> d          49.245  48.953  45.022  0.00  0.00     0.022 A 
ATOM     25  C23 <0> d          49.339  47.870  45.874  0.00  0.00    -0.001 A 
ATOM     26  C22 <0> d          48.982  48.005  47.208  0.00  0.00     0.074 A 
ATOM     27  C21 <0> d          48.543  49.231  47.685  0.00  0.00     0.038 A 
ATOM     28  C20 <0> d          48.452  50.311  46.829  0.00  0.00     0.012 A 
ATOM     29  C25 <0> d          49.821  46.539  45.354  0.00  0.00     0.205 C 
ATOM     30  O2  <0> d          51.032  46.179  46.022  0.00  0.00    -0.396 OA
ATOM     31  H34 <0> d          51.834  46.409  45.532  0.00  0.00     0.209 HD
ATOM     32  O3  <0> d          49.069  46.939  48.047  0.00  0.00    -0.360 OA
ATOM     33  H35 <0> d          49.768  46.313  47.817  0.00  0.00     0.217 HD
ATOM     34  O4  <0> d          49.674  52.332  44.930  0.00  0.00    -0.389 OA
ATOM     35  H36 <0> d          50.446  51.969  45.389  0.00  0.00     0.210 HD
ENDMDL
MODEL 6
REMARK VINA RESULT:      -7.7      1.901      2.932
ATOM      1  N1  <0> d          51.216  47.247  41.502  0.00  0.00    -0.072 N 
ATOM      2  H37 <0> d          50.306  47.600  41.185  0.00  0.00     0.277 HD
ATOM      3  H38 <0> d          51.707  47.984  42.022  0.00  0.00     0.277 HD
ATOM      4  C16 <0> d          52.024  46.861  40.329  0.00  0.00     0.232 C 
ATOM      5  C15 <0> d          51.359  47.405  39.062  0.00  0.00     0.027 C 
ATOM      6  C14 <0> d          50.654  46.265  38.326  0.00  0.00     0.002 C 
ATOM      7  C13 <0> d          49.226  46.689  37.975  0.00  0.00     0.002 C 
ATOM      8  C12 <0> d          49.256  47.641  36.778  0.00  0.00     0.026 C 
ATOM      9  C11 <0> d          50.202  47.090  35.711  0.00  0.00     0.167 C 
ATOM     10  O1  <0> d          50.474  48.106  34.745  0.00  0.00    -0.391 OA
ATOM     11  C10 <0> d          51.192  49.226  35.268  0.00  0.00     0.167 C 
ATOM     12  C9  <0> d          50.484  50.521  34.863  0.00  0.00     0.027 C 
ATOM     13  C8  <0> d          51.339  51.721  35.276  0.00  0.00     0.007 C 
ATOM     14  C7  <0> d          50.774  52.333  36.558  0.00  0.00     0.038 C 
ATOM     15  C4  <0> d          51.825  52.299  37.637  0.00  0.00    -0.058 A 
ATOM     16  C3  <0> d          52.531  53.446  37.951  0.00  0.00     0.007 A 
ATOM     17  C2  <0> d          53.497  53.416  38.940  0.00  0.00     0.001 A 
ATOM     18  C1  <0> d          53.757  52.239  39.615  0.00  0.00     0.000 A 
ATOM     19  C6  <0> d          53.050  51.092  39.302  0.00  0.00     0.001 A 
ATOM     20  C5  <0> d          52.082  51.123  38.316  0.00  0.00     0.007 A 
ATOM     21  C17 <0> d          51.007  46.084  42.384  0.00  0.00     0.268 C 
ATOM     22  C18 <0> d          49.543  46.049  42.828  0.00  0.00     0.176 C 
ATOM     23  C19 <0> d          49.437  46.535  44.250  0.00  0.00    -0.027 A 
ATOM     24  C24 <0> d          49.073  47.843  44.507  0.00  0.00     0.022 A 
ATOM     25  C23 <0> d          48.976  48.291  45.811  0.00  0.00    -0.001 A 
ATOM     26  C22 <0> d          49.251  47.429  46.862  0.00  0.00     0.074 A 
ATOM     27  C21 <0> d          49.612  46.115  46.602  0.00  0.00     0.038 A 
ATOM     28  C20 <0> d          49.706  45.672  45.297  0.00  0.00     0.012 A 
ATOM     29  C25 <0> d          48.579  49.718  46.090  0.00  0.00     0.205 C 
ATOM     30  O2  <0> d          49.713  50.442  46.572  0.00  0.00    -0.396 OA
ATOM     31  H34 <0> d          50.033  51.122  45.963  0.00  0.00     0.209 HD
ATOM     32  O3  <0> d          49.161  47.869  48.145  0.00  0.00    -0.360 OA
ATOM     33  H35 <0> d          48.254  47.991  48.456  0.00  0.00     0.217 HD
ATOM     34  O4  <0> d          48.767  46.892  41.977  0.00  0.00    -0.389 OA
ATOM     35  H36 <0> d          48.636  46.538  41.085  0.00  0.00     0.210 HD
ENDMDL
MODEL 7
REMARK VINA RESULT:      -7.7      1.326      2.152
ATOM      1  N1  <0> d          52.959  47.064  41.600  0.00  0.00    -0.072 N 
ATOM      2  H37 <0> d          53.788  47.669  41.595  0.00  0.00     0.277 HD
ATOM      3  H38 <0> d          53.224  46.116  41.307  0.00  0.00     0.277 HD
ATOM      4  C16 <0> d          51.960  47.602  40.655  0.00  0.00     0.232 C 
ATOM      5  C15 <0> d          51.853  46.663  39.452  0.00  0.00     0.027 C 
ATOM      6  C14 <0> d          50.432  46.716  38.888  0.00  0.00     0.002 C 
ATOM      7  C13 <0> d          50.429  47.517  37.584  0.00  0.00     0.002 C 
ATOM      8  C12 <0> d          51.818  47.456  36.945  0.00  0.00     0.026 C 
ATOM      9  C11 <0> d          52.168  48.823  36.355  0.00  0.00     0.167 C 
ATOM     10  O1  <0> d          51.259  49.131  35.297  0.00  0.00    -0.391 OA
ATOM     11  C10 <0> d          50.840  50.498  35.272  0.00  0.00     0.167 C 
ATOM     12  C9  <0> d          49.585  50.663  36.131  0.00  0.00     0.027 C 
ATOM     13  C8  <0> d          49.879  51.623  37.286  0.00  0.00     0.007 C 
ATOM     14  C7  <0> d          50.772  52.761  36.789  0.00  0.00     0.038 C 
ATOM     15  C4  <0> d          51.954  52.911  37.711  0.00  0.00    -0.058 A 
ATOM     16  C3  <0> d          52.262  51.906  38.610  0.00  0.00     0.007 A 
ATOM     17  C2  <0> d          53.346  52.044  39.457  0.00  0.00     0.001 A 
ATOM     18  C1  <0> d          54.122  53.187  39.406  0.00  0.00     0.000 A 
ATOM     19  C6  <0> d          53.814  54.191  38.507  0.00  0.00     0.001 A 
ATOM     20  C5  <0> d          52.733  54.052  37.657  0.00  0.00     0.007 A 
ATOM     21  C17 <0> d          52.399  47.015  42.963  0.00  0.00     0.268 C 
ATOM     22  C18 <0> d          51.108  47.836  43.004  0.00  0.00     0.176 C 
ATOM     23  C19 <0> d          50.103  47.149  43.893  0.00  0.00    -0.027 A 
ATOM     24  C24 <0> d          49.680  47.761  45.058  0.00  0.00     0.022 A 
ATOM     25  C23 <0> d          48.760  47.133  45.874  0.00  0.00    -0.001 A 
ATOM     26  C22 <0> d          48.265  45.884  45.528  0.00  0.00     0.074 A 
ATOM     27  C21 <0> d          48.687  45.274  44.356  0.00  0.00     0.038 A 
ATOM     28  C20 <0> d          49.607  45.907  43.543  0.00  0.00     0.012 A 
ATOM     29  C25 <0> d          48.298  47.801  47.145  0.00  0.00     0.205 C 
ATOM     30  O2  <0> d          49.005  47.247  48.256  0.00  0.00    -0.396 OA
ATOM     31  H34 <0> d          48.755  47.627  49.110  0.00  0.00     0.209 HD
ATOM     32  O3  <0> d          47.363  45.262  46.332  0.00  0.00    -0.360 OA
ATOM     33  H35 <0> d          47.505  45.417  47.276  0.00  0.00     0.217 HD
ATOM     34  O4  <0> d          51.387  49.138  43.517  0.00  0.00    -0.389 OA
ATOM     35  H36 <0> d          51.767  49.137  44.408  0.00  0.00     0.210 HD
ENDMDL
MODEL 8
REMARK VINA RESULT:      -7.6      2.242      2.807
ATOM      1  N1  <0> d          49.583  51.151  41.777  0.00  0.00    -0.072 N 
ATOM      2  H37 <0> d          48.919  51.617  41.148  0.00  0.00     0.277 HD
ATOM      3  H38 <0> d          50.456  51.691  41.814  0.00  0.00     0.277 HD
ATOM      4  C16 <0> d          49.872  49.798  41.262  0.00  0.00     0.232 C 
ATOM      5  C15 <0> d          51.380  49.546  41.335  0.00  0.00     0.027 C 
ATOM      6  C14 <0> d          51.745  48.371  40.426  0.00  0.00     0.002 C 
ATOM      7  C13 <0> d          51.013  48.512  39.090  0.00  0.00     0.002 C 
ATOM      8  C12 <0> d          51.714  47.658  38.031  0.00  0.00     0.026 C 
ATOM      9  C11 <0> d          52.082  48.532  36.832  0.00  0.00     0.167 C 
ATOM     10  O1  <0> d          51.145  48.311  35.777  0.00  0.00    -0.391 OA
ATOM     11  C10 <0> d          50.737  49.503  35.103  0.00  0.00     0.167 C 
ATOM     12  C9  <0> d          51.790  50.594  35.313  0.00  0.00     0.027 C 
ATOM     13  C8  <0> d          51.095  51.940  35.527  0.00  0.00     0.007 C 
ATOM     14  C7  <0> d          50.703  52.084  36.998  0.00  0.00     0.038 C 
ATOM     15  C4  <0> d          51.889  52.575  37.788  0.00  0.00    -0.058 A 
ATOM     16  C3  <0> d          52.435  53.816  37.516  0.00  0.00     0.007 A 
ATOM     17  C2  <0> d          53.524  54.266  38.240  0.00  0.00     0.001 A 
ATOM     18  C1  <0> d          54.067  53.475  39.234  0.00  0.00     0.000 A 
ATOM     19  C6  <0> d          53.520  52.235  39.506  0.00  0.00     0.001 A 
ATOM     20  C5  <0> d          52.429  51.786  38.786  0.00  0.00     0.007 A 
ATOM     21  C17 <0> d          49.001  51.070  43.129  0.00  0.00     0.268 C 
ATOM     22  C18 <0> d          48.277  49.731  43.282  0.00  0.00     0.176 C 
ATOM     23  C19 <0> d          48.509  49.189  44.669  0.00  0.00    -0.027 A 
ATOM     24  C24 <0> d          49.045  47.926  44.836  0.00  0.00     0.022 A 
ATOM     25  C23 <0> d          49.259  47.427  46.107  0.00  0.00    -0.001 A 
ATOM     26  C22 <0> d          48.929  48.193  47.216  0.00  0.00     0.074 A 
ATOM     27  C21 <0> d          48.395  49.462  47.046  0.00  0.00     0.038 A 
ATOM     28  C20 <0> d          48.185  49.956  45.773  0.00  0.00     0.012 A 
ATOM     29  C25 <0> d          49.844  46.050  46.289  0.00  0.00     0.205 C 
ATOM     30  O2  <0> d          51.210  46.055  45.868  0.00  0.00    -0.396 OA
ATOM     31  H34 <0> d          51.738  46.766  46.256  0.00  0.00     0.209 HD
ATOM     32  O3  <0> d          49.134  47.703  48.467  0.00  0.00    -0.360 OA
ATOM     33  H35 <0> d          48.857  46.783  48.579  0.00  0.00     0.217 HD
ATOM     34  O4  <0> d          46.877  49.919  43.073  0.00  0.00    -0.389 OA
ATOM     35  H36 <0> d          46.418  50.323  43.824  0.00  0.00     0.210 HD
ENDMDL
MODEL 9
REMARK VINA RESULT:      -7.5      1.912      2.400
ATOM      1  N1  <0> d          50.835  49.524  42.338  0.00  0.00    -0.072 N 
ATOM      2  H37 <0> d          51.610  50.093  42.695  0.00  0.00     0.277 HD
ATOM      3  H38 <0> d          51.186  48.880  41.618  0.00  0.00     0.277 HD
ATOM      4  C16 <0> d          49.817  50.409  41.739  0.00  0.00     0.232 C 
ATOM      5  C15 <0> d          49.013  49.620  40.703  0.00  0.00     0.027 C 
ATOM      6  C14 <0> d          48.858  50.457  39.432  0.00  0.00     0.002 C 
ATOM      7  C13 <0> d          48.670  49.530  38.230  0.00  0.00     0.002 C 
ATOM      8  C12 <0> d          49.985  48.805  37.935  0.00  0.00     0.026 C 
ATOM      9  C11 <0> d          49.777  47.820  36.784  0.00  0.00     0.167 C 
ATOM     10  O1  <0> d          50.460  48.296  35.623  0.00  0.00    -0.391 OA
ATOM     11  C10 <0> d          51.230  49.479  35.846  0.00  0.00     0.167 C 
ATOM     12  C9  <0> d          50.755  50.584  34.900  0.00  0.00     0.027 C 
ATOM     13  C8  <0> d          51.317  51.929  35.363  0.00  0.00     0.007 C 
ATOM     14  C7  <0> d          50.767  52.262  36.751  0.00  0.00     0.038 C 
ATOM     15  C4  <0> d          51.905  52.625  37.669  0.00  0.00    -0.058 A 
ATOM     16  C3  <0> d          52.362  51.711  38.600  0.00  0.00     0.007 A 
ATOM     17  C2  <0> d          53.406  52.044  39.443  0.00  0.00     0.001 A 
ATOM     18  C1  <0> d          53.993  53.292  39.355  0.00  0.00     0.000 A 
ATOM     19  C6  <0> d          53.537  54.206  38.423  0.00  0.00     0.001 A 
ATOM     20  C5  <0> d          52.496  53.871  37.578  0.00  0.00     0.007 A 
ATOM     21  C17 <0> d          50.249  48.745  43.445  0.00  0.00     0.268 C 
ATOM     22  C18 <0> d          49.515  49.697  44.391  0.00  0.00     0.176 C 
ATOM     23  C19 <0> d          48.402  48.955  45.086  0.00  0.00    -0.027 A 
ATOM     24  C24 <0> d          47.088  49.183  44.722  0.00  0.00     0.022 A 
ATOM     25  C23 <0> d          46.067  48.505  45.357  0.00  0.00    -0.001 A 
ATOM     26  C22 <0> d          46.359  47.599  46.366  0.00  0.00     0.074 A 
ATOM     27  C21 <0> d          47.678  47.368  46.727  0.00  0.00     0.038 A 
ATOM     28  C20 <0> d          48.697  48.049  46.088  0.00  0.00     0.012 A 
ATOM     29  C25 <0> d          44.634  48.753  44.960  0.00  0.00     0.205 C 
ATOM     30  O2  <0> d          44.077  47.555  44.416  0.00  0.00    -0.396 OA
ATOM     31  H34 <0> d          44.716  47.005  43.940  0.00  0.00     0.209 HD
ATOM     32  O3  <0> d          45.355  46.934  46.997  0.00  0.00    -0.360 OA
ATOM     33  H35 <0> d          44.933  46.253  46.455  0.00  0.00     0.217 HD
ATOM     34  O4  <0> d          50.430  50.202  45.364  0.00  0.00    -0.389 OA
ATOM     35  H36 <0> d          50.390  49.746  46.217  0.00  0.00     0.210 HD
ENDMDL
MODEL 10
REMARK VINA RESULT:      -7.5      3.434      5.722
ATOM      1  N1  <0> d          45.474  50.859  43.665  0.00  0.00    -0.072 N 
ATOM      2  H37 <0> d          45.363  50.035  43.063  0.00  0.00     0.277 HD
ATOM      3  H38 <0> d          44.858  51.612  43.333  0.00  0.00     0.277 HD
ATOM      4  C16 <0> d          46.875  51.319  43.608  0.00  0.00     0.232 C 
ATOM      5  C15 <0> d          47.742  50.209  43.010  0.00  0.00     0.027 C 
ATOM      6  C14 <0> d          49.045  50.095  43.803  0.00  0.00     0.002 C 
ATOM      7  C13 <0> d          49.555  48.654  43.745  0.00  0.00     0.002 C 
ATOM      8  C12 <0> d          50.887  48.553  44.490  0.00  0.00     0.026 C 
ATOM      9  C11 <0> d          51.186  47.087  44.805  0.00  0.00     0.167 C 
ATOM     10  O1  <0> d          52.535  46.788  44.443  0.00  0.00    -0.391 OA
ATOM     11  C10 <0> d          52.794  46.881  43.040  0.00  0.00     0.167 C 
ATOM     12  C9  <0> d          51.865  45.928  42.285  0.00  0.00     0.027 C 
ATOM     13  C8  <0> d          51.483  46.547  40.938  0.00  0.00     0.007 C 
ATOM     14  C7  <0> d          52.098  47.943  40.826  0.00  0.00     0.038 C 
ATOM     15  C4  <0> d          51.030  48.933  40.443  0.00  0.00    -0.058 A 
ATOM     16  C3  <0> d          49.856  48.493  39.859  0.00  0.00     0.007 A 
ATOM     17  C2  <0> d          48.875  49.401  39.507  0.00  0.00     0.001 A 
ATOM     18  C1  <0> d          49.068  50.750  39.738  0.00  0.00     0.000 A 
ATOM     19  C6  <0> d          50.241  51.190  40.322  0.00  0.00     0.001 A 
ATOM     20  C5  <0> d          51.220  50.281  40.678  0.00  0.00     0.007 A 
ATOM     21  C17 <0> d          45.108  50.505  45.049  0.00  0.00     0.268 C 
ATOM     22  C18 <0> d          44.957  48.986  45.153  0.00  0.00     0.176 C 
ATOM     23  C19 <0> d          46.164  48.408  45.846  0.00  0.00    -0.027 A 
ATOM     24  C24 <0> d          46.929  49.202  46.680  0.00  0.00     0.022 A 
ATOM     25  C23 <0> d          48.036  48.674  47.315  0.00  0.00    -0.001 A 
ATOM     26  C22 <0> d          48.385  47.347  47.111  0.00  0.00     0.074 A 
ATOM     27  C21 <0> d          47.614  46.550  46.277  0.00  0.00     0.038 A 
ATOM     28  C20 <0> d          46.507  47.083  45.645  0.00  0.00     0.012 A 
ATOM     29  C25 <0> d          48.869  49.541  48.225  0.00  0.00     0.205 C 
ATOM     30  O2  <0> d          49.149  48.830  49.433  0.00  0.00    -0.396 OA
ATOM     31  H34 <0> d          49.102  47.868  49.342  0.00  0.00     0.209 HD
ATOM     32  O3  <0> d          49.476  46.827  47.731  0.00  0.00    -0.360 OA
ATOM     33  H35 <0> d          49.307  46.514  48.630  0.00  0.00     0.217 HD
ATOM     34  O4  <0> d          43.783  48.674  45.903  0.00  0.00    -0.389 OA
ATOM     35  H36 <0> d          43.929  48.619  46.858  0.00  0.00     0.210 HD
ENDMDL
MODEL 1
REMARK VINA RESULT:      -7.6      0.000      0.000
ATOM      1  N1  <0> d          49.444  51.737  42.462  0.00  0.00    -0.072 N 
ATOM      2  H37 <0> d          49.060  52.675  42.300  0.00  0.00     0.277 HD
ATOM      3  H38 <0> d          50.342  51.814  42.953  0.00  0.00     0.277 HD
ATOM      4  C16 <0> d          49.656  51.068  41.163  0.00  0.00     0.232 C 
ATOM      5  C15 <0> d          50.146  49.640  41.409  0.00  0.00     0.027 C 
ATOM      6  C14 <0> d          50.333  48.927  40.067  0.00  0.00     0.002 C 
ATOM      7  C13 <0> d          48.965  48.657  39.438  0.00  0.00     0.002 C 
ATOM      8  C12 <0> d          49.096  48.659  37.914  0.00  0.00     0.026 C 
ATOM      9  C11 <0> d          50.291  47.796  37.504  0.00  0.00     0.167 C 
ATOM     10  O1  <0> d          51.196  48.575  36.721  0.00  0.00    -0.391 OA
ATOM     11  C10 <0> d          50.554  49.469  35.810  0.00  0.00     0.167 C 
ATOM     12  C9  <0> d          51.503  50.620  35.471  0.00  0.00     0.027 C 
ATOM     13  C8  <0> d          50.845  51.951  35.844  0.00  0.00     0.007 C 
ATOM     14  C7  <0> d          50.635  52.009  37.358  0.00  0.00     0.038 C 
ATOM     15  C4  <0> d          51.896  52.500  38.021  0.00  0.00    -0.058 A 
ATOM     16  C3  <0> d          52.395  53.753  37.714  0.00  0.00     0.007 A 
ATOM     17  C2  <0> d          53.553  54.204  38.323  0.00  0.00     0.001 A 
ATOM     18  C1  <0> d          54.211  53.403  39.236  0.00  0.00     0.000 A 
ATOM     19  C6  <0> d          53.712  52.151  39.543  0.00  0.00     0.001 A 
ATOM     20  C5  <0> d          52.552  51.701  38.939  0.00  0.00     0.007 A 
ATOM     21  C17 <0> d          48.501  50.962  43.289  0.00  0.00     0.268 C 
ATOM     22  C18 <0> d          48.648  51.389  44.751  0.00  0.00     0.176 C 
ATOM     23  C19 <0> d          48.784  50.166  45.620  0.00  0.00    -0.027 A 
ATOM     24  C24 <0> d          49.284  48.992  45.089  0.00  0.00     0.022 A 
ATOM     25  C23 <0> d          49.409  47.870  45.885  0.00  0.00    -0.001 A 
ATOM     26  C22 <0> d          49.028  47.920  47.217  0.00  0.00     0.074 A 
ATOM     27  C21 <0> d          48.531  49.100  47.751  0.00  0.00     0.038 A 
ATOM     28  C20 <0> d          48.408  50.220  46.951  0.00  0.00     0.012 A 
ATOM     29  C25 <0> d          49.955  46.590  45.303  0.00  0.00     0.205 C 
ATOM     30  O2  <0> d          51.020  46.111  46.126  0.00  0.00    -0.396 OA
ATOM     31  H34 <0> d          51.638  46.799  46.410  0.00  0.00     0.209 HD
ATOM     32  O3  <0> d          49.145  46.816  48.002  0.00  0.00    -0.360 OA
ATOM     33  H35 <0> d          48.390  46.667  48.587  0.00  0.00     0.217 HD
ATOM     34  O4  <0> d          49.811  52.207  44.893  0.00  0.00    -0.389 OA
ATOM     35  H36 <0> d          49.770  53.037  44.397  0.00  0.00     0.210 HD
ENDMDL
MODEL 2
REMARK VINA RESULT:      -7.6      2.314      3.246
ATOM      1  N1  <0> d          50.623  47.958  42.683  0.00  0.00    -0.072 N 
ATOM      2  H37 <0> d          49.933  48.525  43.189  0.00  0.00     0.277 HD
ATOM      3  H38 <0> d          51.488  48.497  42.564  0.00  0.00     0.277 HD
ATOM      4  C16 <0> d          50.083  47.609  41.354  0.00  0.00     0.232 C 
ATOM      5  C15 <0> d          51.245  47.376  40.386  0.00  0.00     0.027 C 
ATOM      6  C14 <0> d          50.799  46.424  39.274  0.00  0.00     0.002 C 
ATOM      7  C13 <0> d          51.524  46.780  37.975  0.00  0.00     0.002 C 
ATOM      8  C12 <0> d          50.603  46.505  36.786  0.00  0.00     0.026 C 
ATOM      9  C11 <0> d          50.251  47.826  36.098  0.00  0.00     0.167 C 
ATOM     10  O1  <0> d          49.085  48.383  36.705  0.00  0.00    -0.391 OA
ATOM     11  C10 <0> d          49.233  49.746  37.106  0.00  0.00     0.167 C 
ATOM     12  C9  <0> d          48.933  49.875  38.600  0.00  0.00     0.027 C 
ATOM     13  C8  <0> d          49.989  50.767  39.257  0.00  0.00     0.007 C 
ATOM     14  C7  <0> d          51.356  50.488  38.630  0.00  0.00     0.038 C 
ATOM     15  C4  <0> d          52.149  51.768  38.566  0.00  0.00    -0.058 A 
ATOM     16  C3  <0> d          51.786  52.762  37.676  0.00  0.00     0.007 A 
ATOM     17  C2  <0> d          52.513  53.937  37.617  0.00  0.00     0.001 A 
ATOM     18  C1  <0> d          53.604  54.117  38.447  0.00  0.00     0.000 A 
ATOM     19  C6  <0> d          53.966  53.123  39.336  0.00  0.00     0.001 A 
ATOM     20  C5  <0> d          53.237  51.950  39.399  0.00  0.00     0.007 A 
ATOM     21  C17 <0> d          50.911  46.736  43.456  0.00  0.00     0.268 C 
ATOM     22  C18 <0> d          50.856  47.064  44.950  0.00  0.00     0.176 C 
ATOM     23  C19 <0> d          49.447  46.886  45.452  0.00  0.00    -0.027 A 
ATOM     24  C24 <0> d          48.826  45.656  45.346  0.00  0.00     0.022 A 
ATOM     25  C23 <0> d          47.533  45.492  45.805  0.00  0.00    -0.001 A 
ATOM     26  C22 <0> d          46.857  46.564  46.368  0.00  0.00     0.074 A 
ATOM     27  C21 <0> d          47.483  47.797  46.479  0.00  0.00     0.038 A 
ATOM     28  C20 <0> d          48.777  47.956  46.018  0.00  0.00     0.012 A 
ATOM     29  C25 <0> d          46.857  44.150  45.689  0.00  0.00     0.205 C 
ATOM     30  O2  <0> d          45.656  44.287  44.926  0.00  0.00    -0.396 OA
ATOM     31  H34 <0> d          44.896  43.822  45.302  0.00  0.00     0.209 HD
ATOM     32  O3  <0> d          45.583  46.407  46.817  0.00  0.00    -0.360 OA
ATOM     33  H35 <0> d          45.320  45.483  46.938  0.00  0.00     0.217 HD
ATOM     34  O4  <0> d          51.730  46.187  45.662  0.00  0.00    -0.389 OA
ATOM     35  H36 <0> d          51.297  45.689  46.370  0.00  0.00     0.210 HD
ENDMDL
MODEL 3
REMARK VINA RESULT:      -7.6      1.769      2.788
ATOM      1  N1  <0> d          50.607  48.577  40.778  0.00  0.00    -0.072 N 
ATOM      2  H37 <0> d          49.935  48.002  40.256  0.00  0.00     0.277 HD
ATOM      3  H38 <0> d          50.622  49.526  40.388  0.00  0.00     0.277 HD
ATOM      4  C16 <0> d          51.952  47.981  40.659  0.00  0.00     0.232 C 
ATOM      5  C15 <0> d          52.080  47.300  39.294  0.00  0.00     0.027 C 
ATOM      6  C14 <0> d          51.164  46.075  39.249  0.00  0.00     0.002 C 
ATOM      7  C13 <0> d          50.266  46.154  38.013  0.00  0.00     0.002 C 
ATOM      8  C12 <0> d          50.783  47.249  37.078  0.00  0.00     0.026 C 
ATOM      9  C11 <0> d          50.201  47.040  35.678  0.00  0.00     0.167 C 
ATOM     10  O1  <0> d          50.272  48.264  34.945  0.00  0.00    -0.391 OA
ATOM     11  C10 <0> d          50.520  49.414  35.757  0.00  0.00     0.167 C 
ATOM     12  C9  <0> d          51.498  50.344  35.039  0.00  0.00     0.027 C 
ATOM     13  C8  <0> d          51.178  51.797  35.398  0.00  0.00     0.007 C 
ATOM     14  C7  <0> d          50.694  51.871  36.847  0.00  0.00     0.038 C 
ATOM     15  C4  <0> d          51.832  52.307  37.734  0.00  0.00    -0.058 A 
ATOM     16  C3  <0> d          52.343  53.587  37.622  0.00  0.00     0.007 A 
ATOM     17  C2  <0> d          53.387  53.989  38.435  0.00  0.00     0.001 A 
ATOM     18  C1  <0> d          53.920  53.111  39.359  0.00  0.00     0.000 A 
ATOM     19  C6  <0> d          53.409  51.831  39.471  0.00  0.00     0.001 A 
ATOM     20  C5  <0> d          52.363  51.430  38.661  0.00  0.00     0.007 A 
ATOM     21  C17 <0> d          50.198  48.638  42.194  0.00  0.00     0.268 C 
ATOM     22  C18 <0> d          49.808  47.235  42.664  0.00  0.00     0.176 C 
ATOM     23  C19 <0> d          49.593  47.246  44.155  0.00  0.00    -0.027 A 
ATOM     24  C24 <0> d          49.090  48.376  44.772  0.00  0.00     0.022 A 
ATOM     25  C23 <0> d          48.893  48.388  46.140  0.00  0.00    -0.001 A 
ATOM     26  C22 <0> d          49.205  47.266  46.894  0.00  0.00     0.074 A 
ATOM     27  C21 <0> d          49.706  46.132  46.273  0.00  0.00     0.038 A 
ATOM     28  C20 <0> d          49.901  46.125  44.905  0.00  0.00     0.012 A 
ATOM     29  C25 <0> d          48.343  49.620  46.811  0.00  0.00     0.205 C 
ATOM     30  O2  <0> d          49.258  50.062  47.816  0.00  0.00    -0.396 OA
ATOM     31  H34 <0> d          49.067  50.945  48.161  0.00  0.00     0.209 HD
ATOM     32  O3  <0> d          49.017  47.277  48.240  0.00  0.00    -0.360 OA
ATOM     33  H35 <0> d          49.386  46.507  48.695  0.00  0.00     0.217 HD
ATOM     34  O4  <0> d          48.603  46.832  42.012  0.00  0.00    -0.389 OA
ATOM     35  H36 <0> d          48.350  47.397  41.267  0.00  0.00     0.210 HD
ENDMDL
MODEL 4
REMARK VINA RESULT:      -7.5      3.007      8.323
ATOM      1  N1  <0> d          51.509  46.476  36.916  0.00  0.00    -0.072 N 
ATOM      2  H37 <0> d          51.487  45.583  36.410  0.00  0.00     0.277 HD
ATOM      3  H38 <0> d          52.462  46.857  36.897  0.00  0.00     0.277 HD
ATOM      4  C16 <0> d          51.106  46.249  38.318  0.00  0.00     0.232 C 
ATOM      5  C15 <0> d          49.836  47.052  38.611  0.00  0.00     0.027 C 
ATOM      6  C14 <0> d          50.095  48.005  39.780  0.00  0.00     0.002 C 
ATOM      7  C13 <0> d          51.544  48.493  39.730  0.00  0.00     0.002 C 
ATOM      8  C12 <0> d          51.665  49.806  40.505  0.00  0.00     0.026 C 
ATOM      9  C11 <0> d          50.280  50.437  40.659  0.00  0.00     0.167 C 
ATOM     10  O1  <0> d          50.288  51.339  41.766  0.00  0.00    -0.391 OA
ATOM     11  C10 <0> d          49.071  51.353  42.513  0.00  0.00     0.167 C 
ATOM     12  C9  <0> d          48.546  49.925  42.662  0.00  0.00     0.027 C 
ATOM     13  C8  <0> d          48.955  49.370  44.028  0.00  0.00     0.007 C 
ATOM     14  C7  <0> d          48.929  47.841  43.987  0.00  0.00     0.038 C 
ATOM     15  C4  <0> d          50.265  47.329  43.514  0.00  0.00    -0.058 A 
ATOM     16  C3  <0> d          51.422  48.012  43.841  0.00  0.00     0.007 A 
ATOM     17  C2  <0> d          52.649  47.542  43.408  0.00  0.00     0.001 A 
ATOM     18  C1  <0> d          52.718  46.391  42.648  0.00  0.00     0.000 A 
ATOM     19  C6  <0> d          51.562  45.708  42.321  0.00  0.00     0.001 A 
ATOM     20  C5  <0> d          50.336  46.174  42.757  0.00  0.00     0.007 A 
ATOM     21  C17 <0> d          50.590  47.428  36.266  0.00  0.00     0.268 C 
ATOM     22  C18 <0> d          51.395  48.610  35.721  0.00  0.00     0.176 C 
ATOM     23  C19 <0> d          50.898  49.887  36.346  0.00  0.00    -0.027 A 
ATOM     24  C24 <0> d          51.798  50.861  36.738  0.00  0.00     0.022 A 
ATOM     25  C23 <0> d          51.344  52.032  37.311  0.00  0.00    -0.001 A 
ATOM     26  C22 <0> d          49.984  52.230  37.498  0.00  0.00     0.074 A 
ATOM     27  C21 <0> d          49.081  51.255  37.100  0.00  0.00     0.038 A 
ATOM     28  C20 <0> d          49.541  50.084  36.526  0.00  0.00     0.012 A 
ATOM     29  C25 <0> d          52.326  53.093  37.738  0.00  0.00     0.205 C 
ATOM     30  O2  <0> d          52.270  54.189  36.823  0.00  0.00    -0.396 OA
ATOM     31  H34 <0> d          51.861  54.986  37.187  0.00  0.00     0.209 HD
ATOM     32  O3  <0> d          49.534  53.381  38.066  0.00  0.00    -0.360 OA
ATOM     33  H35 <0> d          50.046  54.165  37.824  0.00  0.00     0.217 HD
ATOM     34  O4  <0> d          52.776  48.430  36.037  0.00  0.00    -0.389 OA
ATOM     35  H36 <0> d          52.932  47.959  36.867  0.00  0.00     0.210 HD
ENDMDL
MODEL 5
REMARK VINA RESULT:      -7.4      1.254      2.100
ATOM      1  N1  <0> d          49.853  51.320  42.295  0.00  0.00    -0.072 N 
ATOM      2  H37 <0> d          49.550  52.143  41.761  0.00  0.00     0.277 HD
ATOM      3  H38 <0> d          50.555  51.601  42.988  0.00  0.00     0.277 HD
ATOM      4  C16 <0> d          50.449  50.334  41.372  0.00  0.00     0.232 C 
ATOM      5  C15 <0> d          49.384  49.307  40.979  0.00  0.00     0.027 C 
ATOM      6  C14 <0> d          50.026  47.921  40.879  0.00  0.00     0.002 C 
ATOM      7  C13 <0> d          51.549  48.064  40.868  0.00  0.00     0.002 C 
ATOM      8  C12 <0> d          52.165  46.886  40.110  0.00  0.00     0.026 C 
ATOM      9  C11 <0> d          51.050  46.027  39.510  0.00  0.00     0.167 C 
ATOM     10  O1  <0> d          51.183  45.999  38.088  0.00  0.00    -0.391 OA
ATOM     11  C10 <0> d          49.994  46.365  37.386  0.00  0.00     0.167 C 
ATOM     12  C9  <0> d          50.309  47.490  36.399  0.00  0.00     0.027 C 
ATOM     13  C8  <0> d          50.444  48.812  37.158  0.00  0.00     0.007 C 
ATOM     14  C7  <0> d          51.926  49.159  37.319  0.00  0.00     0.038 C 
ATOM     15  C4  <0> d          52.071  50.638  37.568  0.00  0.00    -0.058 A 
ATOM     16  C3  <0> d          52.707  51.087  38.710  0.00  0.00     0.007 A 
ATOM     17  C2  <0> d          52.842  52.444  38.939  0.00  0.00     0.001 A 
ATOM     18  C1  <0> d          52.339  53.352  38.026  0.00  0.00     0.000 A 
ATOM     19  C6  <0> d          51.703  52.902  36.885  0.00  0.00     0.001 A 
ATOM     20  C5  <0> d          51.572  51.546  36.653  0.00  0.00     0.007 A 
ATOM     21  C17 <0> d          48.690  50.735  42.988  0.00  0.00     0.268 C 
ATOM     22  C18 <0> d          48.656  51.246  44.430  0.00  0.00     0.176 C 
ATOM     23  C19 <0> d          48.779  50.083  45.379  0.00  0.00    -0.027 A 
ATOM     24  C24 <0> d          49.252  48.867  44.924  0.00  0.00     0.022 A 
ATOM     25  C23 <0> d          49.364  47.799  45.793  0.00  0.00    -0.001 A 
ATOM     26  C22 <0> d          48.999  47.947  47.122  0.00  0.00     0.074 A 
ATOM     27  C21 <0> d          48.529  49.169  47.579  0.00  0.00     0.038 A 
ATOM     28  C20 <0> d          48.418  50.235  46.706  0.00  0.00     0.012 A 
ATOM     29  C25 <0> d          49.880  46.473  45.295  0.00  0.00     0.205 C 
ATOM     30  O2  <0> d          51.032  46.096  46.052  0.00  0.00    -0.396 OA
ATOM     31  H34 <0> d          51.141  45.141  46.154  0.00  0.00     0.209 HD
ATOM     32  O3  <0> d          49.104  46.896  47.979  0.00  0.00    -0.360 OA
ATOM     33  H35 <0> d          48.917  47.120  48.901  0.00  0.00     0.217 HD
ATOM     34  O4  <0> d          49.742  52.150  44.640  0.00  0.00    -0.389 OA
ATOM     35  H36 <0> d          50.585  51.715  44.829  0.00  0.00     0.210 HD
ENDMDL
MODEL 6
REMARK VINA RESULT:      -7.4      2.680      3.752
ATOM      1  N1  <0> d          52.069  47.843  44.028  0.00  0.00    -0.072 N 
ATOM      2  H37 <0> d          51.673  48.592  44.608  0.00  0.00     0.277 HD
ATOM      3  H38 <0> d          53.075  47.764  44.210  0.00  0.00     0.277 HD
ATOM      4  C16 <0> d          51.857  48.168  42.604  0.00  0.00     0.232 C 
ATOM      5  C15 <0> d          50.463  47.699  42.184  0.00  0.00     0.027 C 
ATOM      6  C14 <0> d          50.438  47.465  40.671  0.00  0.00     0.002 C 
ATOM      7  C13 <0> d          51.869  47.454  40.133  0.00  0.00     0.002 C 
ATOM      8  C12 <0> d          51.861  46.995  38.674  0.00  0.00     0.026 C 
ATOM      9  C11 <0> d          50.844  45.865  38.501  0.00  0.00     0.167 C 
ATOM     10  O1  <0> d          49.767  46.315  37.679  0.00  0.00    -0.391 OA
ATOM     11  C10 <0> d          50.144  46.597  36.330  0.00  0.00     0.167 C 
ATOM     12  C9  <0> d          49.629  47.982  35.934  0.00  0.00     0.027 C 
ATOM     13  C8  <0> d          48.992  48.657  37.151  0.00  0.00     0.007 C 
ATOM     14  C7  <0> d          49.258  50.162  37.098  0.00  0.00     0.038 C 
ATOM     15  C4  <0> d          50.329  50.517  38.098  0.00  0.00    -0.058 A 
ATOM     16  C3  <0> d          51.653  50.566  37.704  0.00  0.00     0.007 A 
ATOM     17  C2  <0> d          52.636  50.892  38.620  0.00  0.00     0.001 A 
ATOM     18  C1  <0> d          52.294  51.169  39.930  0.00  0.00     0.000 A 
ATOM     19  C6  <0> d          50.970  51.119  40.324  0.00  0.00     0.001 A 
ATOM     20  C5  <0> d          49.987  50.798  39.407  0.00  0.00     0.007 A 
ATOM     21  C17 <0> d          51.410  46.567  44.365  0.00  0.00     0.268 C 
ATOM     22  C18 <0> d          50.785  46.679  45.757  0.00  0.00     0.176 C 
ATOM     23  C19 <0> d          49.284  46.693  45.634  0.00  0.00    -0.027 A 
ATOM     24  C24 <0> d          48.565  45.524  45.807  0.00  0.00     0.022 A 
ATOM     25  C23 <0> d          47.189  45.536  45.693  0.00  0.00    -0.001 A 
ATOM     26  C22 <0> d          46.528  46.719  45.402  0.00  0.00     0.074 A 
ATOM     27  C21 <0> d          47.249  47.892  45.234  0.00  0.00     0.038 A 
ATOM     28  C20 <0> d          48.626  47.876  45.349  0.00  0.00     0.012 A 
ATOM     29  C25 <0> d          46.406  44.261  45.882  0.00  0.00     0.205 C 
ATOM     30  O2  <0> d          45.842  43.860  44.632  0.00  0.00    -0.396 OA
ATOM     31  H34 <0> d          46.357  43.190  44.164  0.00  0.00     0.209 HD
ATOM     32  O3  <0> d          45.173  46.732  45.286  0.00  0.00    -0.360 OA
ATOM     33  H35 <0> d          44.810  45.962  44.825  0.00  0.00     0.217 HD
ATOM     34  O4  <0> d          51.189  45.562  46.551  0.00  0.00    -0.389 OA
ATOM     35  H36 <0> d          50.612  44.789  46.465  0.00  0.00     0.210 HD
ENDMDL
MODEL 7
REMARK VINA RESULT:      -7.4      2.551      3.603
ATOM      1  N1  <0> d          51.596  46.399  41.914  0.00  0.00    -0.072 N 
ATOM      2  H37 <0> d          52.165  47.123  42.368  0.00  0.00     0.277 HD
ATOM      3  H38 <0> d          52.211  45.677  41.521  0.00  0.00     0.277 HD
ATOM      4  C16 <0> d          50.807  47.010  40.828  0.00  0.00     0.232 C 
ATOM      5  C15 <0> d          51.603  46.930  39.523  0.00  0.00     0.027 C 
ATOM      6  C14 <0> d          50.731  46.306  38.431  0.00  0.00     0.002 C 
ATOM      7  C13 <0> d          51.224  46.768  37.059  0.00  0.00     0.002 C 
ATOM      8  C12 <0> d          51.233  48.297  37.009  0.00  0.00     0.026 C 
ATOM      9  C11 <0> d          52.491  48.776  36.282  0.00  0.00     0.167 C 
ATOM     10  O1  <0> d          52.120  49.423  35.064  0.00  0.00    -0.391 OA
ATOM     11  C10 <0> d          50.778  49.911  35.051  0.00  0.00     0.167 C 
ATOM     12  C9  <0> d          50.789  51.435  34.924  0.00  0.00     0.027 C 
ATOM     13  C8  <0> d          50.043  52.052  36.109  0.00  0.00     0.007 C 
ATOM     14  C7  <0> d          51.025  52.844  36.975  0.00  0.00     0.038 C 
ATOM     15  C4  <0> d          51.404  52.025  38.182  0.00  0.00    -0.058 A 
ATOM     16  C3  <0> d          50.422  51.395  38.924  0.00  0.00     0.007 A 
ATOM     17  C2  <0> d          50.768  50.643  40.032  0.00  0.00     0.001 A 
ATOM     18  C1  <0> d          52.096  50.523  40.398  0.00  0.00     0.000 A 
ATOM     19  C6  <0> d          53.076  51.154  39.656  0.00  0.00     0.001 A 
ATOM     20  C5  <0> d          52.731  51.902  38.546  0.00  0.00     0.007 A 
ATOM     21  C17 <0> d          50.703  45.785  42.914  0.00  0.00     0.268 C 
ATOM     22  C18 <0> d          50.664  46.670  44.162  0.00  0.00     0.176 C 
ATOM     23  C19 <0> d          49.306  46.572  44.806  0.00  0.00    -0.027 A 
ATOM     24  C24 <0> d          48.706  45.337  44.970  0.00  0.00     0.022 A 
ATOM     25  C23 <0> d          47.461  45.246  45.560  0.00  0.00    -0.001 A 
ATOM     26  C22 <0> d          46.809  46.394  45.984  0.00  0.00     0.074 A 
ATOM     27  C21 <0> d          47.413  47.632  45.823  0.00  0.00     0.038 A 
ATOM     28  C20 <0> d          48.660  47.719  45.233  0.00  0.00     0.012 A 
ATOM     29  C25 <0> d          46.808  43.898  45.738  0.00  0.00     0.205 C 
ATOM     30  O2  <0> d          45.598  43.851  44.980  0.00  0.00    -0.396 OA
ATOM     31  H34 <0> d          44.797  43.808  45.519  0.00  0.00     0.209 HD
ATOM     32  O3  <0> d          45.581  46.307  46.561  0.00  0.00    -0.360 OA
ATOM     33  H35 <0> d          44.894  46.810  46.101  0.00  0.00     0.217 HD
ATOM     34  O4  <0> d          51.663  46.235  45.086  0.00  0.00    -0.389 OA
ATOM     35  H36 <0> d          52.525  46.064  44.681  0.00  0.00     0.210 HD
ENDMDL
MODEL 8
REMARK VINA RESULT:      -7.3      3.481      6.398
ATOM      1  N1  <0> d          51.248  48.259  35.115  0.00  0.00    -0.072 N 
ATOM      2  H37 <0> d          51.832  47.711  34.472  0.00  0.00     0.277 HD
ATOM      3  H38 <0> d          50.291  47.890  35.108  0.00  0.00     0.277 HD
ATOM      4  C16 <0> d          51.228  49.667  34.671  0.00  0.00     0.232 C 
ATOM      5  C15 <0> d          50.547  50.521  35.743  0.00  0.00     0.027 C 
ATOM      6  C14 <0> d          51.356  51.801  35.964  0.00  0.00     0.002 C 
ATOM      7  C13 <0> d          50.468  52.859  36.622  0.00  0.00     0.002 C 
ATOM      8  C12 <0> d          51.244  53.548  37.746  0.00  0.00     0.026 C 
ATOM      9  C11 <0> d          52.626  53.959  37.234  0.00  0.00     0.167 C 
ATOM     10  O1  <0> d          53.572  53.878  38.301  0.00  0.00    -0.391 OA
ATOM     11  C10 <0> d          53.142  53.073  39.400  0.00  0.00     0.167 C 
ATOM     12  C9  <0> d          53.906  51.748  39.392  0.00  0.00     0.027 C 
ATOM     13  C8  <0> d          52.929  50.596  39.147  0.00  0.00     0.007 C 
ATOM     14  C7  <0> d          52.349  50.126  40.482  0.00  0.00     0.038 C 
ATOM     15  C4  <0> d          50.883  50.470  40.541  0.00  0.00    -0.058 A 
ATOM     16  C3  <0> d          50.175  50.679  39.372  0.00  0.00     0.007 A 
ATOM     17  C2  <0> d          48.829  50.994  39.425  0.00  0.00     0.001 A 
ATOM     18  C1  <0> d          48.193  51.103  40.647  0.00  0.00     0.000 A 
ATOM     19  C6  <0> d          48.901  50.895  41.815  0.00  0.00     0.001 A 
ATOM     20  C5  <0> d          50.245  50.575  41.762  0.00  0.00     0.007 A 
ATOM     21  C17 <0> d          51.800  48.160  36.479  0.00  0.00     0.268 C 
ATOM     22  C18 <0> d          51.474  46.779  37.052  0.00  0.00     0.176 C 
ATOM     23  C19 <0> d          50.695  46.937  38.331  0.00  0.00    -0.027 A 
ATOM     24  C24 <0> d          51.326  46.768  39.550  0.00  0.00     0.022 A 
ATOM     25  C23 <0> d          50.613  46.912  40.724  0.00  0.00    -0.001 A 
ATOM     26  C22 <0> d          49.262  47.222  40.680  0.00  0.00     0.074 A 
ATOM     27  C21 <0> d          48.631  47.396  39.457  0.00  0.00     0.038 A 
ATOM     28  C20 <0> d          49.348  47.251  38.285  0.00  0.00     0.012 A 
ATOM     29  C25 <0> d          51.302  46.729  42.052  0.00  0.00     0.205 C 
ATOM     30  O2  <0> d          52.706  46.941  41.892  0.00  0.00    -0.396 OA
ATOM     31  H34 <0> d          53.128  47.372  42.648  0.00  0.00     0.209 HD
ATOM     32  O3  <0> d          48.556  47.360  41.835  0.00  0.00    -0.360 OA
ATOM     33  H35 <0> d          48.851  48.096  42.390  0.00  0.00     0.217 HD
ATOM     34  O4  <0> d          50.695  46.043  36.107  0.00  0.00    -0.389 OA
ATOM     35  H36 <0> d          50.062  46.584  35.613  0.00  0.00     0.210 HD
ENDMDL
MODEL 9
REMARK VINA RESULT:      -7.3      2.234      4.751
ATOM      1  N1  <0> d          51.806  45.773  43.184  0.00  0.00    -0.072 N 
ATOM      2  H37 <0> d          51.747  45.950  44.193  0.00  0.00     0.277 HD
ATOM      3  H38 <0> d          52.251  44.862  43.021  0.00  0.00     0.277 HD
ATOM      4  C16 <0> d          52.619  46.830  42.552  0.00  0.00     0.232 C 
ATOM      5  C15 <0> d          52.065  47.122  41.156  0.00  0.00     0.027 C 
ATOM      6  C14 <0> d          52.096  48.631  40.900  0.00  0.00     0.002 C 
ATOM      7  C13 <0> d          50.762  49.074  40.298  0.00  0.00     0.002 C 
ATOM      8  C12 <0> d          50.278  50.340  41.007  0.00  0.00     0.026 C 
ATOM      9  C11 <0> d          49.638  51.283  39.986  0.00  0.00     0.167 C 
ATOM     10  O1  <0> d          50.044  50.906  38.670  0.00  0.00    -0.391 OA
ATOM     11  C10 <0> d          50.738  51.934  37.959  0.00  0.00     0.167 C 
ATOM     12  C9  <0> d          52.015  51.358  37.346  0.00  0.00     0.027 C 
ATOM     13  C8  <0> d          51.655  50.485  36.142  0.00  0.00     0.007 C 
ATOM     14  C7  <0> d          52.370  49.138  36.255  0.00  0.00     0.038 C 
ATOM     15  C4  <0> d          51.400  48.095  36.749  0.00  0.00    -0.058 A 
ATOM     16  C3  <0> d          51.870  46.965  37.392  0.00  0.00     0.007 A 
ATOM     17  C2  <0> d          50.981  46.007  37.846  0.00  0.00     0.001 A 
ATOM     18  C1  <0> d          49.623  46.180  37.656  0.00  0.00     0.000 A 
ATOM     19  C6  <0> d          49.154  47.310  37.013  0.00  0.00     0.001 A 
ATOM     20  C5  <0> d          50.042  48.270  36.563  0.00  0.00     0.007 A 
ATOM     21  C17 <0> d          50.447  45.760  42.611  0.00  0.00     0.268 C 
ATOM     22  C18 <0> d          49.429  45.583  43.740  0.00  0.00     0.176 C 
ATOM     23  C19 <0> d          49.039  46.934  44.280  0.00  0.00    -0.027 A 
ATOM     24  C24 <0> d          48.978  47.140  45.646  0.00  0.00     0.022 A 
ATOM     25  C23 <0> d          48.619  48.378  46.143  0.00  0.00    -0.001 A 
ATOM     26  C22 <0> d          48.316  49.413  45.271  0.00  0.00     0.074 A 
ATOM     27  C21 <0> d          48.382  49.206  43.902  0.00  0.00     0.038 A 
ATOM     28  C20 <0> d          48.741  47.966  43.409  0.00  0.00     0.012 A 
ATOM     29  C25 <0> d          48.554  48.602  47.633  0.00  0.00     0.205 C 
ATOM     30  O2  <0> d          49.274  47.565  48.301  0.00  0.00    -0.396 OA
ATOM     31  H34 <0> d          48.893  47.306  49.151  0.00  0.00     0.209 HD
ATOM     32  O3  <0> d          47.958  50.632  45.758  0.00  0.00    -0.360 OA
ATOM     33  H35 <0> d          47.418  51.155  45.150  0.00  0.00     0.217 HD
ATOM     34  O4  <0> d          48.271  44.918  43.235  0.00  0.00    -0.389 OA
ATOM     35  H36 <0> d          48.395  44.517  42.363  0.00  0.00     0.210 HD
ENDMDL
MODEL 10
REMARK VINA RESULT:      -7.3      2.509      4.490
ATOM      1  N1  <0> d          51.578  48.409  43.167  0.00  0.00    -0.072 N 
ATOM      2  H37 <0> d          51.266  49.119  43.839  0.00  0.00     0.277 HD
ATOM      3  H38 <0> d          52.603  48.400  43.129  0.00  0.00     0.277 HD
ATOM      4  C16 <0> d          51.044  48.737  41.831  0.00  0.00     0.232 C 
ATOM      5  C15 <0> d          52.175  48.648  40.803  0.00  0.00     0.027 C 
ATOM      6  C14 <0> d          51.700  49.230  39.470  0.00  0.00     0.002 C 
ATOM      7  C13 <0> d          50.346  49.915  39.666  0.00  0.00     0.002 C 
ATOM      8  C12 <0> d          50.117  50.924  38.540  0.00  0.00     0.026 C 
ATOM      9  C11 <0> d          51.365  51.794  38.374  0.00  0.00     0.167 C 
ATOM     10  O1  <0> d          51.928  51.579  37.080  0.00  0.00    -0.391 OA
ATOM     11  C10 <0> d          51.148  52.118  36.010  0.00  0.00     0.167 C 
ATOM     12  C9  <0> d          50.859  51.020  34.985  0.00  0.00     0.027 C 
ATOM     13  C8  <0> d          51.647  49.760  35.350  0.00  0.00     0.007 C 
ATOM     14  C7  <0> d          50.875  48.523  34.887  0.00  0.00     0.038 C 
ATOM     15  C4  <0> d          50.472  47.705  36.086  0.00  0.00    -0.058 A 
ATOM     16  C3  <0> d          49.200  47.832  36.613  0.00  0.00     0.007 A 
ATOM     17  C2  <0> d          48.829  47.081  37.714  0.00  0.00     0.001 A 
ATOM     18  C1  <0> d          49.730  46.204  38.288  0.00  0.00     0.000 A 
ATOM     19  C6  <0> d          51.002  46.078  37.761  0.00  0.00     0.001 A 
ATOM     20  C5  <0> d          51.372  46.825  36.658  0.00  0.00     0.007 A 
ATOM     21  C17 <0> d          51.095  47.084  43.600  0.00  0.00     0.268 C 
ATOM     22  C18 <0> d          50.981  47.065  45.126  0.00  0.00     0.176 C 
ATOM     23  C19 <0> d          49.556  46.780  45.520  0.00  0.00    -0.027 A 
ATOM     24  C24 <0> d          49.040  45.506  45.370  0.00  0.00     0.022 A 
ATOM     25  C23 <0> d          47.733  45.243  45.731  0.00  0.00    -0.001 A 
ATOM     26  C22 <0> d          46.937  46.258  46.240  0.00  0.00     0.074 A 
ATOM     27  C21 <0> d          47.457  47.534  46.394  0.00  0.00     0.038 A 
ATOM     28  C20 <0> d          48.765  47.793  46.032  0.00  0.00     0.012 A 
ATOM     29  C25 <0> d          47.171  43.853  45.568  0.00  0.00     0.205 C 
ATOM     30  O2  <0> d          46.256  43.836  44.471  0.00  0.00    -0.396 OA
ATOM     31  H34 <0> d          46.639  43.517  43.643  0.00  0.00     0.209 HD
ATOM     32  O3  <0> d          45.648  46.002  46.592  0.00  0.00    -0.360 OA
ATOM     33  H35 <0> d          45.479  45.077  46.820  0.00  0.00     0.217 HD
ATOM     34  O4  <0> d          51.836  46.050  45.654  0.00  0.00    -0.389 OA
ATOM     35  H36 <0> d          51.695  45.867  46.594  0.00  0.00     0.210 HD
ENDMDL
