MODEL 1
REMARK VINA RESULT:      -7.0      0.000      0.000
ATOM      1  C8  <0> d          49.812  48.274  44.548  0.00  0.00     0.188 C 
ATOM      2  C9  <0> d          49.601  47.286  45.698  0.00  0.00     0.246 C 
ATOM      3  C10 <0> d          48.977  48.016  46.888  0.00  0.00     0.182 C 
ATOM      4  C11 <0> d          47.632  48.613  46.474  0.00  0.00     0.184 C 
ATOM      5  C12 <0> d          47.843  49.600  45.325  0.00  0.00     0.247 C 
ATOM      6  C13 <0> d          48.466  48.871  44.134  0.00  0.00     0.182 C 
ATOM      7  O2  <0> d          50.394  47.592  43.434  0.00  0.00    -0.349 OA
ATOM      8  C7  <0> d          51.760  47.936  43.192  0.00  0.00     0.291 C 
ATOM      9  C6  <0> d          52.455  46.783  42.463  0.00  0.00     0.238 C 
ATOM     10  C5  <0> d          51.781  46.568  41.104  0.00  0.00     0.040 C 
ATOM     11  C4  <0> d          51.835  47.875  40.308  0.00  0.00     0.036 C 
ATOM     12  C3  <0> d          51.163  48.987  41.120  0.00  0.00     0.154 C 
ATOM     13  O1  <0> d          51.819  49.113  42.383  0.00  0.00    -0.352 OA
ATOM     14  N3  <0> d          52.318  45.555  43.266  0.00  0.00    -0.070 N 
ATOM     15  H28 <0> d          53.195  45.352  43.745  0.00  0.00     0.274 HD
ATOM     16  H29 <0> d          51.575  45.668  43.953  0.00  0.00     0.274 HD
ATOM     17  H35 <0> d          52.084  44.771  42.647  0.00  0.00     0.274 HD
ATOM     18  C2  <0> d          51.266  50.309  40.356  0.00  0.00     0.208 C 
ATOM     19  C1  <0> d          52.726  50.562  39.972  0.00  0.00     0.042 C 
ATOM     20  N4  <0> d          50.765  51.397  41.213  0.00  0.00    -0.073 N 
ATOM     21  H30 <0> d          51.094  51.269  42.170  0.00  0.00     0.274 HD
ATOM     22  H31 <0> d          51.087  52.297  40.862  0.00  0.00     0.274 HD
ATOM     23  H36 <0> d          49.738  51.384  41.209  0.00  0.00     0.274 HD
ATOM     24  O3  <0> d          47.592  47.824  43.707  0.00  0.00    -0.391 OA
ATOM     25  H18 <0> d          46.806  47.718  44.261  0.00  0.00     0.210 HD
ATOM     26  N2  <0> d          48.682  46.224  45.250  0.00  0.00    -0.070 N 
ATOM     27  H26 <0> d          47.920  46.627  44.708  0.00  0.00     0.274 HD
ATOM     28  H27 <0> d          49.183  45.547  44.677  0.00  0.00     0.274 HD
ATOM     29  H34 <0> d          48.293  45.745  46.071  0.00  0.00     0.274 HD
ATOM     30  N1  <0> d          46.541  50.168  44.929  0.00  0.00    -0.070 N 
ATOM     31  C14 <0> d          46.736  51.293  43.995  0.00  0.00     0.267 C 
ATOM     32  H32 <0> d          46.049  50.505  45.766  0.00  0.00     0.277 HD
ATOM     33  H33 <0> d          45.978  49.442  44.470  0.00  0.00     0.277 HD
ATOM     34  O5  <0> d          48.780  47.093  47.961  0.00  0.00    -0.391 OA
ATOM     35  H25 <0> d          48.699  46.172  47.680  0.00  0.00     0.210 HD
ATOM     36  O4  <0> d          46.757  47.566  46.047  0.00  0.00    -0.386 OA
ATOM     37  C15 <0> d          45.532  47.496  46.778  0.00  0.00     0.202 C 
ENDMDL
MODEL 2
REMARK VINA RESULT:      -7.0      2.793      3.644
ATOM      1  C8  <0> d          50.476  47.748  41.617  0.00  0.00     0.188 C 
ATOM      2  C9  <0> d          51.055  46.601  42.448  0.00  0.00     0.246 C 
ATOM      3  C10 <0> d          51.606  47.152  43.764  0.00  0.00     0.182 C 
ATOM      4  C11 <0> d          50.481  47.831  44.544  0.00  0.00     0.184 C 
ATOM      5  C12 <0> d          49.903  48.978  43.714  0.00  0.00     0.247 C 
ATOM      6  C13 <0> d          49.350  48.428  42.399  0.00  0.00     0.182 C 
ATOM      7  O2  <0> d          49.960  47.234  40.387  0.00  0.00    -0.349 OA
ATOM      8  C7  <0> d          50.847  47.382  39.277  0.00  0.00     0.291 C 
ATOM      9  C6  <0> d          50.735  46.157  38.366  0.00  0.00     0.238 C 
ATOM     10  C5  <0> d          49.308  46.071  37.813  0.00  0.00     0.040 C 
ATOM     11  C4  <0> d          48.979  47.374  37.078  0.00  0.00     0.036 C 
ATOM     12  C3  <0> d          49.158  48.552  38.040  0.00  0.00     0.154 C 
ATOM     13  O1  <0> d          50.497  48.555  38.540  0.00  0.00    -0.352 OA
ATOM     14  N3  <0> d          51.018  44.945  39.154  0.00  0.00    -0.070 N 
ATOM     15  H28 <0> d          51.760  45.133  39.828  0.00  0.00     0.274 HD
ATOM     16  H29 <0> d          50.180  44.646  39.648  0.00  0.00     0.274 HD
ATOM     17  H35 <0> d          51.320  44.194  38.523  0.00  0.00     0.274 HD
ATOM     18  C2  <0> d          48.888  49.862  37.295  0.00  0.00     0.208 C 
ATOM     19  C1  <0> d          50.002  50.107  36.275  0.00  0.00     0.042 C 
ATOM     20  N4  <0> d          48.834  50.965  38.271  0.00  0.00    -0.073 N 
ATOM     21  H30 <0> d          47.930  50.968  38.744  0.00  0.00     0.274 HD
ATOM     22  H31 <0> d          49.576  50.860  38.960  0.00  0.00     0.274 HD
ATOM     23  H36 <0> d          48.956  51.857  37.778  0.00  0.00     0.274 HD
ATOM     24  O3  <0> d          48.322  47.474  42.676  0.00  0.00    -0.391 OA
ATOM     25  H18 <0> d          47.469  47.689  42.273  0.00  0.00     0.210 HD
ATOM     26  N2  <0> d          49.980  45.637  42.743  0.00  0.00    -0.070 N 
ATOM     27  H26 <0> d          50.277  44.998  43.479  0.00  0.00     0.274 HD
ATOM     28  H27 <0> d          49.140  46.130  43.042  0.00  0.00     0.274 HD
ATOM     29  H34 <0> d          49.768  45.097  41.896  0.00  0.00     0.274 HD
ATOM     30  N1  <0> d          48.816  49.625  44.472  0.00  0.00    -0.070 N 
ATOM     31  C14 <0> d          49.369  50.418  45.586  0.00  0.00     0.267 C 
ATOM     32  H32 <0> d          48.189  48.903  44.849  0.00  0.00     0.277 HD
ATOM     33  H33 <0> d          48.286  50.244  43.847  0.00  0.00     0.277 HD
ATOM     34  O5  <0> d          52.147  46.080  44.539  0.00  0.00    -0.391 OA
ATOM     35  H25 <0> d          51.496  45.618  45.082  0.00  0.00     0.210 HD
ATOM     36  O4  <0> d          49.452  46.878  44.823  0.00  0.00    -0.386 OA
ATOM     37  C15 <0> d          49.266  46.611  46.213  0.00  0.00     0.202 C 
ENDMDL
