MODEL 1
REMARK VINA RESULT:      -7.2      0.000      0.000
ATOM      1  N1  <0> d          50.766  49.523  42.720  0.00  0.00    -0.072 N 
ATOM      2  H37 <0> d          51.512  48.841  42.539  0.00  0.00     0.277 HD
ATOM      3  H38 <0> d          51.134  50.283  43.303  0.00  0.00     0.277 HD
ATOM      4  C16 <0> d          49.661  48.854  43.435  0.00  0.00     0.232 C 
ATOM      5  C15 <0> d          50.233  48.037  44.594  0.00  0.00     0.027 C 
ATOM      6  C14 <0> d          51.758  47.998  44.488  0.00  0.00     0.002 C 
ATOM      7  C13 <0> d          52.218  46.554  44.276  0.00  0.00     0.002 C 
ATOM      8  C12 <0> d          52.424  46.297  42.783  0.00  0.00     0.026 C 
ATOM      9  C11 <0> d          51.243  45.496  42.235  0.00  0.00     0.167 C 
ATOM     10  O1  <0> d          50.664  46.196  41.132  0.00  0.00    -0.391 OA
ATOM     11  C10 <0> d          51.519  46.290  39.991  0.00  0.00     0.167 C 
ATOM     12  C9  <0> d          51.119  45.227  38.965  0.00  0.00     0.027 C 
ATOM     13  C8  <0> d          51.132  45.840  37.564  0.00  0.00     0.007 C 
ATOM     14  C7  <0> d          50.284  47.114  37.556  0.00  0.00     0.038 C 
ATOM     15  C4  <0> d          50.903  48.125  36.625  0.00  0.00    -0.058 A 
ATOM     16  C3  <0> d          52.213  48.525  36.815  0.00  0.00     0.007 A 
ATOM     17  C2  <0> d          52.782  49.452  35.960  0.00  0.00     0.001 A 
ATOM     18  C1  <0> d          52.041  49.979  34.919  0.00  0.00     0.000 A 
ATOM     19  C6  <0> d          50.732  49.579  34.731  0.00  0.00     0.001 A 
ATOM     20  C5  <0> d          50.165  48.648  35.582  0.00  0.00     0.007 A 
ATOM     21  C17 <0> d          50.288  50.075  41.440  0.00  0.00     0.268 C 
ATOM     22  C18 <0> d          51.285  49.717  40.336  0.00  0.00     0.176 C 
ATOM     23  C19 <0> d          51.382  50.858  39.357  0.00  0.00    -0.027 A 
ATOM     24  C24 <0> d          50.337  51.114  38.490  0.00  0.00     0.022 A 
ATOM     25  C23 <0> d          50.424  52.160  37.592  0.00  0.00    -0.001 A 
ATOM     26  C22 <0> d          51.565  52.949  37.556  0.00  0.00     0.074 A 
ATOM     27  C21 <0> d          52.611  52.693  38.430  0.00  0.00     0.038 A 
ATOM     28  C20 <0> d          52.518  51.646  39.327  0.00  0.00     0.012 A 
ATOM     29  C25 <0> d          49.284  52.439  36.646  0.00  0.00     0.205 C 
ATOM     30  O2  <0> d          48.913  53.816  36.741  0.00  0.00    -0.396 OA
ATOM     31  H34 <0> d          49.069  54.205  37.612  0.00  0.00     0.209 HD
ATOM     32  O3  <0> d          51.655  53.976  36.668  0.00  0.00    -0.360 OA
ATOM     33  H35 <0> d          51.137  54.754  36.914  0.00  0.00     0.217 HD
ATOM     34  O4  <0> d          52.567  49.473  40.914  0.00  0.00    -0.389 OA
ATOM     35  H36 <0> d          53.164  50.234  40.887  0.00  0.00     0.210 HD
ENDMDL
MODEL 2
REMARK VINA RESULT:      -7.0      3.239      7.584
ATOM      1  N1  <0> d          51.940  46.070  43.705  0.00  0.00    -0.072 N 
ATOM      2  H37 <0> d          52.808  46.344  44.179  0.00  0.00     0.277 HD
ATOM      3  H38 <0> d          51.723  45.092  43.930  0.00  0.00     0.277 HD
ATOM      4  C16 <0> d          52.120  46.205  42.247  0.00  0.00     0.232 C 
ATOM      5  C15 <0> d          50.977  47.045  41.674  0.00  0.00     0.027 C 
ATOM      6  C14 <0> d          51.554  48.190  40.841  0.00  0.00     0.002 C 
ATOM      7  C13 <0> d          50.670  48.425  39.614  0.00  0.00     0.002 C 
ATOM      8  C12 <0> d          50.698  47.185  38.719  0.00  0.00     0.026 C 
ATOM      9  C11 <0> d          51.768  47.358  37.640  0.00  0.00     0.167 C 
ATOM     10  O1  <0> d          52.004  48.751  37.424  0.00  0.00    -0.391 OA
ATOM     11  C10 <0> d          52.135  49.112  36.048  0.00  0.00     0.167 C 
ATOM     12  C9  <0> d          51.635  50.544  35.846  0.00  0.00     0.027 C 
ATOM     13  C8  <0> d          50.604  50.881  36.924  0.00  0.00     0.007 C 
ATOM     14  C7  <0> d          50.630  52.385  37.205  0.00  0.00     0.038 C 
ATOM     15  C4  <0> d          51.896  52.737  37.942  0.00  0.00    -0.058 A 
ATOM     16  C3  <0> d          52.402  51.873  38.896  0.00  0.00     0.007 A 
ATOM     17  C2  <0> d          53.565  52.196  39.573  0.00  0.00     0.001 A 
ATOM     18  C1  <0> d          54.219  53.382  39.297  0.00  0.00     0.000 A 
ATOM     19  C6  <0> d          53.712  54.245  38.345  0.00  0.00     0.001 A 
ATOM     20  C5  <0> d          52.553  53.920  37.664  0.00  0.00     0.007 A 
ATOM     21  C17 <0> d          50.838  46.934  44.167  0.00  0.00     0.268 C 
ATOM     22  C18 <0> d          50.521  46.603  45.627  0.00  0.00     0.176 C 
ATOM     23  C19 <0> d          49.196  45.889  45.703  0.00  0.00    -0.027 A 
ATOM     24  C24 <0> d          48.046  46.597  45.993  0.00  0.00     0.022 A 
ATOM     25  C23 <0> d          46.830  45.944  46.063  0.00  0.00    -0.001 A 
ATOM     26  C22 <0> d          46.766  44.575  45.849  0.00  0.00     0.074 A 
ATOM     27  C21 <0> d          47.922  43.866  45.554  0.00  0.00     0.038 A 
ATOM     28  C20 <0> d          49.134  44.525  45.484  0.00  0.00     0.012 A 
ATOM     29  C25 <0> d          45.575  46.718  46.380  0.00  0.00     0.205 C 
ATOM     30  O2  <0> d          44.875  47.006  45.168  0.00  0.00    -0.396 OA
ATOM     31  H34 <0> d          45.405  47.481  44.513  0.00  0.00     0.209 HD
ATOM     32  O3  <0> d          45.571  43.929  45.924  0.00  0.00    -0.360 OA
ATOM     33  H35 <0> d          45.440  43.442  46.748  0.00  0.00     0.217 HD
ATOM     34  O4  <0> d          51.546  45.765  46.159  0.00  0.00    -0.389 OA
ATOM     35  H36 <0> d          52.178  45.447  45.498  0.00  0.00     0.210 HD
ENDMDL
MODEL 3
REMARK VINA RESULT:      -7.0      2.168      6.793
ATOM      1  N1  <0> d          49.497  51.527  42.246  0.00  0.00    -0.072 N 
ATOM      2  H37 <0> d          49.116  52.475  42.346  0.00  0.00     0.277 HD
ATOM      3  H38 <0> d          50.521  51.564  42.300  0.00  0.00     0.277 HD
ATOM      4  C16 <0> d          49.099  50.980  40.935  0.00  0.00     0.232 C 
ATOM      5  C15 <0> d          50.188  51.293  39.907  0.00  0.00     0.027 C 
ATOM      6  C14 <0> d          51.553  50.907  40.476  0.00  0.00     0.002 C 
ATOM      7  C13 <0> d          52.637  51.781  39.841  0.00  0.00     0.002 C 
ATOM      8  C12 <0> d          52.408  51.862  38.330  0.00  0.00     0.026 C 
ATOM      9  C11 <0> d          52.269  53.326  37.913  0.00  0.00     0.167 C 
ATOM     10  O1  <0> d          51.309  53.432  36.860  0.00  0.00    -0.391 OA
ATOM     11  C10 <0> d          51.380  52.375  35.902  0.00  0.00     0.167 C 
ATOM     12  C9  <0> d          49.983  51.786  35.687  0.00  0.00     0.027 C 
ATOM     13  C8  <0> d          50.064  50.259  35.710  0.00  0.00     0.007 C 
ATOM     14  C7  <0> d          49.275  49.724  36.908  0.00  0.00     0.038 C 
ATOM     15  C4  <0> d          49.853  48.402  37.341  0.00  0.00    -0.058 A 
ATOM     16  C3  <0> d          51.139  48.343  37.845  0.00  0.00     0.007 A 
ATOM     17  C2  <0> d          51.670  47.129  38.244  0.00  0.00     0.001 A 
ATOM     18  C1  <0> d          50.915  45.976  38.138  0.00  0.00     0.000 A 
ATOM     19  C6  <0> d          49.629  46.036  37.634  0.00  0.00     0.001 A 
ATOM     20  C5  <0> d          49.097  47.250  37.241  0.00  0.00     0.007 A 
ATOM     21  C17 <0> d          48.981  50.677  43.334  0.00  0.00     0.268 C 
ATOM     22  C18 <0> d          48.884  49.232  42.838  0.00  0.00     0.176 C 
ATOM     23  C19 <0> d          49.858  48.373  43.601  0.00  0.00    -0.027 A 
ATOM     24  C24 <0> d          49.407  47.563  44.627  0.00  0.00     0.022 A 
ATOM     25  C23 <0> d          50.299  46.773  45.327  0.00  0.00    -0.001 A 
ATOM     26  C22 <0> d          51.648  46.800  45.007  0.00  0.00     0.074 A 
ATOM     27  C21 <0> d          52.098  47.611  43.974  0.00  0.00     0.038 A 
ATOM     28  C20 <0> d          51.202  48.397  43.276  0.00  0.00     0.012 A 
ATOM     29  C25 <0> d          49.807  45.890  46.446  0.00  0.00     0.205 C 
ATOM     30  O2  <0> d          49.639  46.671  47.630  0.00  0.00    -0.396 OA
ATOM     31  H34 <0> d          48.859  47.243  47.616  0.00  0.00     0.209 HD
ATOM     32  O3  <0> d          52.529  46.029  45.699  0.00  0.00    -0.360 OA
ATOM     33  H35 <0> d          53.330  45.809  45.206  0.00  0.00     0.217 HD
ATOM     34  O4  <0> d          47.557  48.747  43.043  0.00  0.00    -0.389 OA
ATOM     35  H36 <0> d          47.386  48.432  43.942  0.00  0.00     0.210 HD
ENDMDL
MODEL 4
REMARK VINA RESULT:      -6.9      2.631      6.287
ATOM      1  N1  <0> d          48.821  51.671  41.827  0.00  0.00    -0.072 N 
ATOM      2  H37 <0> d          48.275  52.540  41.860  0.00  0.00     0.277 HD
ATOM      3  H38 <0> d          49.770  51.877  41.494  0.00  0.00     0.277 HD
ATOM      4  C16 <0> d          48.174  50.727  40.896  0.00  0.00     0.232 C 
ATOM      5  C15 <0> d          49.137  50.409  39.751  0.00  0.00     0.027 C 
ATOM      6  C14 <0> d          48.670  49.145  39.028  0.00  0.00     0.002 C 
ATOM      7  C13 <0> d          49.057  47.914  39.850  0.00  0.00     0.002 C 
ATOM      8  C12 <0> d          50.579  47.766  39.865  0.00  0.00     0.026 C 
ATOM      9  C11 <0> d          50.976  46.500  39.104  0.00  0.00     0.167 C 
ATOM     10  O1  <0> d          51.556  46.862  37.849  0.00  0.00    -0.391 OA
ATOM     11  C10 <0> d          50.679  46.694  36.734  0.00  0.00     0.167 C 
ATOM     12  C9  <0> d          50.609  47.999  35.938  0.00  0.00     0.027 C 
ATOM     13  C8  <0> d          51.710  48.948  36.417  0.00  0.00     0.007 C 
ATOM     14  C7  <0> d          51.154  50.370  36.512  0.00  0.00     0.038 C 
ATOM     15  C4  <0> d          51.940  51.151  37.532  0.00  0.00    -0.058 A 
ATOM     16  C3  <0> d          51.977  52.532  37.464  0.00  0.00     0.007 A 
ATOM     17  C2  <0> d          52.699  53.250  38.401  0.00  0.00     0.001 A 
ATOM     18  C1  <0> d          53.383  52.588  39.403  0.00  0.00     0.000 A 
ATOM     19  C6  <0> d          53.347  51.209  39.469  0.00  0.00     0.001 A 
ATOM     20  C5  <0> d          52.621  50.491  38.536  0.00  0.00     0.007 A 
ATOM     21  C17 <0> d          48.893  51.088  43.179  0.00  0.00     0.268 C 
ATOM     22  C18 <0> d          48.365  49.653  43.134  0.00  0.00     0.176 C 
ATOM     23  C19 <0> d          49.375  48.726  43.760  0.00  0.00    -0.027 A 
ATOM     24  C24 <0> d          48.971  47.802  44.705  0.00  0.00     0.022 A 
ATOM     25  C23 <0> d          49.895  46.951  45.279  0.00  0.00    -0.001 A 
ATOM     26  C22 <0> d          51.231  47.030  44.913  0.00  0.00     0.074 A 
ATOM     27  C21 <0> d          51.634  47.957  43.962  0.00  0.00     0.038 A 
ATOM     28  C20 <0> d          50.705  48.804  43.389  0.00  0.00     0.012 A 
ATOM     29  C25 <0> d          49.455  45.943  46.310  0.00  0.00     0.205 C 
ATOM     30  O2  <0> d          49.878  46.370  47.605  0.00  0.00    -0.396 OA
ATOM     31  H34 <0> d          50.111  47.308  47.652  0.00  0.00     0.209 HD
ATOM     32  O3  <0> d          52.145  46.198  45.482  0.00  0.00    -0.360 OA
ATOM     33  H35 <0> d          52.001  46.044  46.425  0.00  0.00     0.217 HD
ATOM     34  O4  <0> d          47.135  49.576  43.856  0.00  0.00    -0.389 OA
ATOM     35  H36 <0> d          47.029  48.763  44.370  0.00  0.00     0.210 HD
ENDMDL
MODEL 5
REMARK VINA RESULT:      -6.9      2.909      7.419
ATOM      1  N1  <0> d          50.600  47.454  42.304  0.00  0.00    -0.072 N 
ATOM      2  H37 <0> d          50.973  46.518  42.499  0.00  0.00     0.277 HD
ATOM      3  H38 <0> d          49.635  47.372  41.963  0.00  0.00     0.277 HD
ATOM      4  C16 <0> d          51.428  48.099  41.266  0.00  0.00     0.232 C 
ATOM      5  C15 <0> d          52.028  47.022  40.360  0.00  0.00     0.027 C 
ATOM      6  C14 <0> d          50.989  46.587  39.327  0.00  0.00     0.002 C 
ATOM      7  C13 <0> d          51.465  46.981  37.927  0.00  0.00     0.002 C 
ATOM      8  C12 <0> d          50.551  46.344  36.879  0.00  0.00     0.026 C 
ATOM      9  C11 <0> d          50.209  47.377  35.804  0.00  0.00     0.167 C 
ATOM     10  O1  <0> d          51.339  48.223  35.582  0.00  0.00    -0.391 OA
ATOM     11  C10 <0> d          51.103  49.272  34.640  0.00  0.00     0.167 C 
ATOM     12  C9  <0> d          51.625  50.594  35.207  0.00  0.00     0.027 C 
ATOM     13  C8  <0> d          50.464  51.379  35.821  0.00  0.00     0.007 C 
ATOM     14  C7  <0> d          50.357  51.051  37.312  0.00  0.00     0.038 C 
ATOM     15  C4  <0> d          51.560  51.597  38.036  0.00  0.00    -0.058 A 
ATOM     16  C3  <0> d          51.926  52.920  37.865  0.00  0.00     0.007 A 
ATOM     17  C2  <0> d          53.030  53.422  38.530  0.00  0.00     0.001 A 
ATOM     18  C1  <0> d          53.768  52.603  39.363  0.00  0.00     0.000 A 
ATOM     19  C6  <0> d          53.402  51.281  39.533  0.00  0.00     0.001 A 
ATOM     20  C5  <0> d          52.295  50.780  38.873  0.00  0.00     0.007 A 
ATOM     21  C17 <0> d          50.614  48.254  43.541  0.00  0.00     0.268 C 
ATOM     22  C18 <0> d          50.712  47.314  44.745  0.00  0.00     0.176 C 
ATOM     23  C19 <0> d          49.329  47.016  45.263  0.00  0.00    -0.027 A 
ATOM     24  C24 <0> d          48.834  45.727  45.209  0.00  0.00     0.022 A 
ATOM     25  C23 <0> d          47.567  45.452  45.685  0.00  0.00    -0.001 A 
ATOM     26  C22 <0> d          46.787  46.473  46.210  0.00  0.00     0.074 A 
ATOM     27  C21 <0> d          47.288  47.766  46.268  0.00  0.00     0.038 A 
ATOM     28  C20 <0> d          48.557  48.034  45.792  0.00  0.00     0.012 A 
ATOM     29  C25 <0> d          47.027  44.046  45.625  0.00  0.00     0.205 C 
ATOM     30  O2  <0> d          45.859  44.019  44.802  0.00  0.00    -0.396 OA
ATOM     31  H34 <0> d          45.349  43.200  44.870  0.00  0.00     0.209 HD
ATOM     32  O3  <0> d          45.537  46.206  46.674  0.00  0.00    -0.360 OA
ATOM     33  H35 <0> d          45.493  46.073  47.630  0.00  0.00     0.217 HD
ATOM     34  O4  <0> d          51.345  46.097  44.347  0.00  0.00    -0.389 OA
ATOM     35  H36 <0> d          50.841  45.300  44.565  0.00  0.00     0.210 HD
ENDMDL
MODEL 6
REMARK VINA RESULT:      -6.9      2.381      7.012
ATOM      1  N1  <0> d          52.301  47.313  41.230  0.00  0.00    -0.072 N 
ATOM      2  H37 <0> d          53.219  47.156  40.797  0.00  0.00     0.277 HD
ATOM      3  H38 <0> d          51.565  46.977  40.598  0.00  0.00     0.277 HD
ATOM      4  C16 <0> d          52.117  48.757  41.466  0.00  0.00     0.232 C 
ATOM      5  C15 <0> d          50.863  49.232  40.730  0.00  0.00     0.027 C 
ATOM      6  C14 <0> d          51.252  50.259  39.667  0.00  0.00     0.002 C 
ATOM      7  C13 <0> d          52.623  50.850  40.006  0.00  0.00     0.002 C 
ATOM      8  C12 <0> d          53.056  51.806  38.893  0.00  0.00     0.026 C 
ATOM      9  C11 <0> d          51.828  52.520  38.326  0.00  0.00     0.167 C 
ATOM     10  O1  <0> d          51.755  52.297  36.917  0.00  0.00    -0.391 OA
ATOM     11  C10 <0> d          50.432  52.378  36.383  0.00  0.00     0.167 C 
ATOM     12  C9  <0> d          50.062  51.044  35.732  0.00  0.00     0.027 C 
ATOM     13  C8  <0> d          51.275  50.487  34.985  0.00  0.00     0.007 C 
ATOM     14  C7  <0> d          50.965  49.071  34.493  0.00  0.00     0.038 C 
ATOM     15  C4  <0> d          50.939  48.125  35.665  0.00  0.00    -0.058 A 
ATOM     16  C3  <0> d          49.889  47.238  35.812  0.00  0.00     0.007 A 
ATOM     17  C2  <0> d          49.865  46.368  36.888  0.00  0.00     0.001 A 
ATOM     18  C1  <0> d          50.890  46.387  37.815  0.00  0.00     0.000 A 
ATOM     19  C6  <0> d          51.939  47.274  37.667  0.00  0.00     0.001 A 
ATOM     20  C5  <0> d          51.966  48.139  36.589  0.00  0.00     0.007 A 
ATOM     21  C17 <0> d          52.229  46.573  42.502  0.00  0.00     0.268 C 
ATOM     22  C18 <0> d          50.953  45.727  42.518  0.00  0.00     0.176 C 
ATOM     23  C19 <0> d          50.161  46.036  43.762  0.00  0.00    -0.027 A 
ATOM     24  C24 <0> d          49.003  45.334  44.035  0.00  0.00     0.022 A 
ATOM     25  C23 <0> d          48.275  45.615  45.176  0.00  0.00    -0.001 A 
ATOM     26  C22 <0> d          48.704  46.609  46.043  0.00  0.00     0.074 A 
ATOM     27  C21 <0> d          49.870  47.312  45.769  0.00  0.00     0.038 A 
ATOM     28  C20 <0> d          50.594  47.024  44.628  0.00  0.00     0.012 A 
ATOM     29  C25 <0> d          47.012  44.848  45.473  0.00  0.00     0.205 C 
ATOM     30  O2  <0> d          45.883  45.706  45.300  0.00  0.00    -0.396 OA
ATOM     31  H34 <0> d          46.066  46.638  45.483  0.00  0.00     0.209 HD
ATOM     32  O3  <0> d          47.987  46.893  47.163  0.00  0.00    -0.360 OA
ATOM     33  H35 <0> d          47.799  46.121  47.715  0.00  0.00     0.217 HD
ATOM     34  O4  <0> d          50.168  46.029  41.365  0.00  0.00    -0.389 OA
ATOM     35  H36 <0> d          49.220  46.108  41.542  0.00  0.00     0.210 HD
ENDMDL
MODEL 7
REMARK VINA RESULT:      -6.9      3.082      7.253
ATOM      1  N1  <0> d          50.045  47.482  43.041  0.00  0.00    -0.072 N 
ATOM      2  H37 <0> d          49.101  47.078  43.040  0.00  0.00     0.277 HD
ATOM      3  H38 <0> d          50.029  48.385  43.528  0.00  0.00     0.277 HD
ATOM      4  C16 <0> d          50.486  47.690  41.648  0.00  0.00     0.232 C 
ATOM      5  C15 <0> d          51.781  46.913  41.408  0.00  0.00     0.027 C 
ATOM      6  C14 <0> d          52.296  47.202  39.998  0.00  0.00     0.002 C 
ATOM      7  C13 <0> d          51.112  47.311  39.034  0.00  0.00     0.002 C 
ATOM      8  C12 <0> d          51.455  46.607  37.721  0.00  0.00     0.026 C 
ATOM      9  C11 <0> d          50.165  46.231  36.991  0.00  0.00     0.167 C 
ATOM     10  O1  <0> d          50.204  46.747  35.659  0.00  0.00    -0.391 OA
ATOM     11  C10 <0> d          50.013  48.161  35.579  0.00  0.00     0.167 C 
ATOM     12  C9  <0> d          51.144  48.783  34.757  0.00  0.00     0.027 C 
ATOM     13  C8  <0> d          51.663  50.034  35.467  0.00  0.00     0.007 C 
ATOM     14  C7  <0> d          50.566  50.600  36.372  0.00  0.00     0.038 C 
ATOM     15  C4  <0> d          51.100  50.761  37.771  0.00  0.00    -0.058 A 
ATOM     16  C3  <0> d          52.464  50.743  37.995  0.00  0.00     0.007 A 
ATOM     17  C2  <0> d          52.956  50.891  39.280  0.00  0.00     0.001 A 
ATOM     18  C1  <0> d          52.083  51.056  40.339  0.00  0.00     0.000 A 
ATOM     19  C6  <0> d          50.720  51.074  40.114  0.00  0.00     0.001 A 
ATOM     20  C5  <0> d          50.229  50.931  38.829  0.00  0.00     0.007 A 
ATOM     21  C17 <0> d          50.966  46.567  43.738  0.00  0.00     0.268 C 
ATOM     22  C18 <0> d          50.871  46.812  45.246  0.00  0.00     0.176 C 
ATOM     23  C19 <0> d          49.431  46.714  45.680  0.00  0.00    -0.027 A 
ATOM     24  C24 <0> d          48.747  45.521  45.538  0.00  0.00     0.022 A 
ATOM     25  C23 <0> d          47.427  45.428  45.936  0.00  0.00    -0.001 A 
ATOM     26  C22 <0> d          46.786  46.536  46.472  0.00  0.00     0.074 A 
ATOM     27  C21 <0> d          47.476  47.732  46.617  0.00  0.00     0.038 A 
ATOM     28  C20 <0> d          48.796  47.817  46.219  0.00  0.00     0.012 A 
ATOM     29  C25 <0> d          46.682  44.127  45.780  0.00  0.00     0.205 C 
ATOM     30  O2  <0> d          45.610  44.302  44.852  0.00  0.00    -0.396 OA
ATOM     31  H34 <0> d          45.680  45.104  44.317  0.00  0.00     0.209 HD
ATOM     32  O3  <0> d          45.485  46.449  46.858  0.00  0.00    -0.360 OA
ATOM     33  H35 <0> d          44.967  45.810  46.351  0.00  0.00     0.217 HD
ATOM     34  O4  <0> d          51.646  45.832  45.937  0.00  0.00    -0.389 OA
ATOM     35  H36 <0> d          52.545  45.727  45.595  0.00  0.00     0.210 HD
ENDMDL
MODEL 8
REMARK VINA RESULT:      -6.8      2.975      7.333
ATOM      1  N1  <0> d          49.505  47.351  42.324  0.00  0.00    -0.072 N 
ATOM      2  H37 <0> d          48.594  46.888  42.217  0.00  0.00     0.277 HD
ATOM      3  H38 <0> d          49.379  48.237  42.827  0.00  0.00     0.277 HD
ATOM      4  C16 <0> d          50.069  47.627  40.989  0.00  0.00     0.232 C 
ATOM      5  C15 <0> d          51.588  47.449  41.039  0.00  0.00     0.027 C 
ATOM      6  C14 <0> d          52.268  48.780  40.720  0.00  0.00     0.002 C 
ATOM      7  C13 <0> d          51.281  49.699  39.998  0.00  0.00     0.002 C 
ATOM      8  C12 <0> d          51.489  51.141  40.465  0.00  0.00     0.026 C 
ATOM      9  C11 <0> d          52.687  51.746  39.731  0.00  0.00     0.167 C 
ATOM     10  O1  <0> d          52.515  51.581  38.322  0.00  0.00    -0.391 OA
ATOM     11  C10 <0> d          51.769  52.630  37.702  0.00  0.00     0.167 C 
ATOM     12  C9  <0> d          51.352  52.196  36.295  0.00  0.00     0.027 C 
ATOM     13  C8  <0> d          51.545  50.685  36.149  0.00  0.00     0.007 C 
ATOM     14  C7  <0> d          50.178  50.003  36.052  0.00  0.00     0.038 C 
ATOM     15  C4  <0> d          50.264  48.617  36.635  0.00  0.00    -0.058 A 
ATOM     16  C3  <0> d          49.110  47.948  36.998  0.00  0.00     0.007 A 
ATOM     17  C2  <0> d          49.188  46.675  37.533  0.00  0.00     0.001 A 
ATOM     18  C1  <0> d          50.420  46.072  37.705  0.00  0.00     0.000 A 
ATOM     19  C6  <0> d          51.573  46.741  37.342  0.00  0.00     0.001 A 
ATOM     20  C5  <0> d          51.495  48.012  36.802  0.00  0.00     0.007 A 
ATOM     21  C17 <0> d          50.409  46.477  43.093  0.00  0.00     0.268 C 
ATOM     22  C18 <0> d          50.447  46.950  44.547  0.00  0.00     0.176 C 
ATOM     23  C19 <0> d          49.087  46.768  45.170  0.00  0.00    -0.027 A 
ATOM     24  C24 <0> d          48.511  45.512  45.215  0.00  0.00     0.022 A 
ATOM     25  C23 <0> d          47.264  45.343  45.787  0.00  0.00    -0.001 A 
ATOM     26  C22 <0> d          46.588  46.436  46.309  0.00  0.00     0.074 A 
ATOM     27  C21 <0> d          47.169  47.695  46.266  0.00  0.00     0.038 A 
ATOM     28  C20 <0> d          48.417  47.858  45.695  0.00  0.00     0.012 A 
ATOM     29  C25 <0> d          46.636  43.974  45.835  0.00  0.00     0.205 C 
ATOM     30  O2  <0> d          45.508  43.937  44.960  0.00  0.00    -0.396 OA
ATOM     31  H34 <0> d          45.343  44.770  44.496  0.00  0.00     0.209 HD
ATOM     32  O3  <0> d          45.357  46.273  46.866  0.00  0.00    -0.360 OA
ATOM     33  H35 <0> d          44.628  46.360  46.238  0.00  0.00     0.217 HD
ATOM     34  O4  <0> d          51.410  46.184  45.271  0.00  0.00    -0.389 OA
ATOM     35  H36 <0> d          51.102  45.878  46.136  0.00  0.00     0.210 HD
ENDMDL
MODEL 9
REMARK VINA RESULT:      -6.8      2.805      7.049
ATOM      1  N1  <0> d          52.651  47.401  42.501  0.00  0.00    -0.072 N 
ATOM      2  H37 <0> d          53.028  48.092  43.160  0.00  0.00     0.277 HD
ATOM      3  H38 <0> d          53.426  46.931  42.019  0.00  0.00     0.277 HD
ATOM      4  C16 <0> d          51.808  48.090  41.505  0.00  0.00     0.232 C 
ATOM      5  C15 <0> d          50.596  47.215  41.180  0.00  0.00     0.027 C 
ATOM      6  C14 <0> d          49.339  48.083  41.128  0.00  0.00     0.002 C 
ATOM      7  C13 <0> d          48.539  47.751  39.866  0.00  0.00     0.002 C 
ATOM      8  C12 <0> d          48.641  48.912  38.876  0.00  0.00     0.026 C 
ATOM      9  C11 <0> d          49.104  50.170  39.611  0.00  0.00     0.167 C 
ATOM     10  O1  <0> d          50.361  50.596  39.081  0.00  0.00    -0.391 OA
ATOM     11  C10 <0> d          50.275  51.743  38.233  0.00  0.00     0.167 C 
ATOM     12  C9  <0> d          51.406  51.703  37.204  0.00  0.00     0.027 C 
ATOM     13  C8  <0> d          52.374  50.571  37.554  0.00  0.00     0.007 C 
ATOM     14  C7  <0> d          52.593  49.686  36.325  0.00  0.00     0.038 C 
ATOM     15  C4  <0> d          51.701  48.476  36.411  0.00  0.00    -0.058 A 
ATOM     16  C3  <0> d          50.671  48.311  35.503  0.00  0.00     0.007 A 
ATOM     17  C2  <0> d          49.852  47.198  35.581  0.00  0.00     0.001 A 
ATOM     18  C1  <0> d          50.062  46.253  36.568  0.00  0.00     0.000 A 
ATOM     19  C6  <0> d          51.090  46.419  37.476  0.00  0.00     0.001 A 
ATOM     20  C5  <0> d          51.913  47.528  37.394  0.00  0.00     0.007 A 
ATOM     21  C17 <0> d          51.858  46.403  43.241  0.00  0.00     0.268 C 
ATOM     22  C18 <0> d          51.641  46.898  44.672  0.00  0.00     0.176 C 
ATOM     23  C19 <0> d          50.222  46.612  45.092  0.00  0.00    -0.027 A 
ATOM     24  C24 <0> d          49.564  45.504  44.593  0.00  0.00     0.022 A 
ATOM     25  C23 <0> d          48.264  45.239  44.977  0.00  0.00    -0.001 A 
ATOM     26  C22 <0> d          47.615  46.092  45.859  0.00  0.00     0.074 A 
ATOM     27  C21 <0> d          48.278  47.202  46.362  0.00  0.00     0.038 A 
ATOM     28  C20 <0> d          49.580  47.460  45.976  0.00  0.00     0.012 A 
ATOM     29  C25 <0> d          47.547  44.031  44.432  0.00  0.00     0.205 C 
ATOM     30  O2  <0> d          47.256  43.128  45.501  0.00  0.00    -0.396 OA
ATOM     31  H34 <0> d          46.472  42.582  45.352  0.00  0.00     0.209 HD
ATOM     32  O3  <0> d          46.333  45.838  46.234  0.00  0.00    -0.360 OA
ATOM     33  H35 <0> d          46.095  44.901  46.210  0.00  0.00     0.217 HD
ATOM     34  O4  <0> d          52.543  46.224  45.550  0.00  0.00    -0.389 OA
ATOM     35  H36 <0> d          52.952  46.799  46.213  0.00  0.00     0.210 HD
ENDMDL
MODEL 10
REMARK VINA RESULT:      -6.7      2.983      6.955
ATOM      1  N1  <0> d          48.707  51.405  41.904  0.00  0.00    -0.072 N 
ATOM      2  H37 <0> d          48.901  52.367  42.206  0.00  0.00     0.277 HD
ATOM      3  H38 <0> d          49.591  50.934  41.679  0.00  0.00     0.277 HD
ATOM      4  C16 <0> d          47.853  51.437  40.701  0.00  0.00     0.232 C 
ATOM      5  C15 <0> d          48.652  50.921  39.503  0.00  0.00     0.027 C 
ATOM      6  C14 <0> d          48.376  49.429  39.310  0.00  0.00     0.002 C 
ATOM      7  C13 <0> d          48.934  48.977  37.959  0.00  0.00     0.002 C 
ATOM      8  C12 <0> d          48.987  47.449  37.914  0.00  0.00     0.026 C 
ATOM      9  C11 <0> d          50.443  46.987  37.980  0.00  0.00     0.167 C 
ATOM     10  O1  <0> d          50.834  46.841  39.347  0.00  0.00    -0.391 OA
ATOM     11  C10 <0> d          52.039  47.533  39.682  0.00  0.00     0.167 C 
ATOM     12  C9  <0> d          51.814  48.365  40.946  0.00  0.00     0.027 C 
ATOM     13  C8  <0> d          51.868  49.853  40.594  0.00  0.00     0.007 C 
ATOM     14  C7  <0> d          52.190  50.014  39.107  0.00  0.00     0.038 C 
ATOM     15  C4  <0> d          52.571  51.444  38.826  0.00  0.00    -0.058 A 
ATOM     16  C3  <0> d          51.871  52.173  37.883  0.00  0.00     0.007 A 
ATOM     17  C2  <0> d          52.221  53.487  37.625  0.00  0.00     0.001 A 
ATOM     18  C1  <0> d          53.270  54.069  38.310  0.00  0.00     0.000 A 
ATOM     19  C6  <0> d          53.970  53.340  39.252  0.00  0.00     0.001 A 
ATOM     20  C5  <0> d          53.617  52.029  39.514  0.00  0.00     0.007 A 
ATOM     21  C17 <0> d          48.031  50.679  42.994  0.00  0.00     0.268 C 
ATOM     22  C18 <0> d          48.551  49.240  43.036  0.00  0.00     0.176 C 
ATOM     23  C19 <0> d          48.707  48.805  44.470  0.00  0.00    -0.027 A 
ATOM     24  C24 <0> d          49.167  47.534  44.759  0.00  0.00     0.022 A 
ATOM     25  C23 <0> d          49.312  47.132  46.073  0.00  0.00    -0.001 A 
ATOM     26  C22 <0> d          48.987  48.003  47.103  0.00  0.00     0.074 A 
ATOM     27  C21 <0> d          48.528  49.280  46.811  0.00  0.00     0.038 A 
ATOM     28  C20 <0> d          48.388  49.676  45.495  0.00  0.00     0.012 A 
ATOM     29  C25 <0> d          49.813  45.746  46.388  0.00  0.00     0.205 C 
ATOM     30  O2  <0> d          51.242  45.739  46.358  0.00  0.00    -0.396 OA
ATOM     31  H34 <0> d          51.636  44.903  46.643  0.00  0.00     0.209 HD
ATOM     32  O3  <0> d          49.122  47.608  48.397  0.00  0.00    -0.360 OA
ATOM     33  H35 <0> d          49.495  46.723  48.501  0.00  0.00     0.217 HD
ATOM     34  O4  <0> d          47.625  48.379  42.373  0.00  0.00    -0.389 OA
ATOM     35  H36 <0> d          48.024  47.578  42.006  0.00  0.00     0.210 HD
ENDMDL
MODEL 1
REMARK VINA RESULT:      -7.3      0.000      0.000
ATOM      1  N1  <0> d          50.866  48.714  42.734  0.00  0.00    -0.072 N 
ATOM      2  H37 <0> d          50.342  49.543  42.432  0.00  0.00     0.277 HD
ATOM      3  H38 <0> d          51.870  48.874  42.589  0.00  0.00     0.277 HD
ATOM      4  C16 <0> d          50.440  47.551  41.932  0.00  0.00     0.232 C 
ATOM      5  C15 <0> d          51.676  46.761  41.497  0.00  0.00     0.027 C 
ATOM      6  C14 <0> d          52.257  47.383  40.226  0.00  0.00     0.002 C 
ATOM      7  C13 <0> d          51.121  47.728  39.261  0.00  0.00     0.002 C 
ATOM      8  C12 <0> d          51.358  47.028  37.922  0.00  0.00     0.026 C 
ATOM      9  C11 <0> d          51.182  48.034  36.783  0.00  0.00     0.167 C 
ATOM     10  O1  <0> d          52.465  48.424  36.290  0.00  0.00    -0.391 OA
ATOM     11  C10 <0> d          52.456  49.647  35.549  0.00  0.00     0.167 C 
ATOM     12  C9  <0> d          51.052  50.254  35.586  0.00  0.00     0.027 C 
ATOM     13  C8  <0> d          51.156  51.781  35.597  0.00  0.00     0.007 C 
ATOM     14  C7  <0> d          50.694  52.313  36.955  0.00  0.00     0.038 C 
ATOM     15  C4  <0> d          51.897  52.635  37.804  0.00  0.00    -0.058 A 
ATOM     16  C3  <0> d          52.529  53.857  37.671  0.00  0.00     0.007 A 
ATOM     17  C2  <0> d          53.633  54.153  38.450  0.00  0.00     0.001 A 
ATOM     18  C1  <0> d          54.102  53.227  39.362  0.00  0.00     0.000 A 
ATOM     19  C6  <0> d          53.471  52.005  39.494  0.00  0.00     0.001 A 
ATOM     20  C5  <0> d          52.364  51.711  38.719  0.00  0.00     0.007 A 
ATOM     21  C17 <0> d          50.612  48.471  44.166  0.00  0.00     0.268 C 
ATOM     22  C18 <0> d          49.617  49.514  44.682  0.00  0.00     0.176 C 
ATOM     23  C19 <0> d          48.461  48.814  45.351  0.00  0.00    -0.027 A 
ATOM     24  C24 <0> d          48.329  47.443  45.244  0.00  0.00     0.022 A 
ATOM     25  C23 <0> d          47.271  46.800  45.857  0.00  0.00    -0.001 A 
ATOM     26  C22 <0> d          46.335  47.534  46.571  0.00  0.00     0.074 A 
ATOM     27  C21 <0> d          46.471  48.910  46.680  0.00  0.00     0.038 A 
ATOM     28  C20 <0> d          47.533  49.547  46.067  0.00  0.00     0.012 A 
ATOM     29  C25 <0> d          47.128  45.304  45.742  0.00  0.00     0.205 C 
ATOM     30  O2  <0> d          45.933  44.995  45.022  0.00  0.00    -0.396 OA
ATOM     31  H34 <0> d          45.142  44.938  45.575  0.00  0.00     0.209 HD
ATOM     32  O3  <0> d          45.289  46.904  47.170  0.00  0.00    -0.360 OA
ATOM     33  H35 <0> d          45.331  45.940  47.122  0.00  0.00     0.217 HD
ATOM     34  O4  <0> d          50.266  50.370  45.622  0.00  0.00    -0.389 OA
ATOM     35  H36 <0> d          49.681  50.713  46.312  0.00  0.00     0.210 HD
ENDMDL
MODEL 2
REMARK VINA RESULT:      -7.3      1.809      3.746
ATOM      1  N1  <0> d          51.085  47.471  42.539  0.00  0.00    -0.072 N 
ATOM      2  H37 <0> d          50.163  47.566  42.100  0.00  0.00     0.277 HD
ATOM      3  H38 <0> d          51.298  48.320  43.075  0.00  0.00     0.277 HD
ATOM      4  C16 <0> d          52.107  47.291  41.490  0.00  0.00     0.232 C 
ATOM      5  C15 <0> d          52.114  48.522  40.581  0.00  0.00     0.027 C 
ATOM      6  C14 <0> d          50.895  49.392  40.891  0.00  0.00     0.002 C 
ATOM      7  C13 <0> d          51.190  50.841  40.499  0.00  0.00     0.002 C 
ATOM      8  C12 <0> d          52.387  50.879  39.548  0.00  0.00     0.026 C 
ATOM      9  C11 <0> d          52.415  52.222  38.816  0.00  0.00     0.167 C 
ATOM     10  O1  <0> d          51.851  52.065  37.513  0.00  0.00    -0.391 OA
ATOM     11  C10 <0> d          50.787  52.977  37.228  0.00  0.00     0.167 C 
ATOM     12  C9  <0> d          49.456  52.222  37.221  0.00  0.00     0.027 C 
ATOM     13  C8  <0> d          49.640  50.869  36.531  0.00  0.00     0.007 C 
ATOM     14  C7  <0> d          48.897  49.789  37.321  0.00  0.00     0.038 C 
ATOM     15  C4  <0> d          49.756  48.555  37.416  0.00  0.00    -0.058 A 
ATOM     16  C3  <0> d          51.076  48.598  37.007  0.00  0.00     0.007 A 
ATOM     17  C2  <0> d          51.865  47.466  37.094  0.00  0.00     0.001 A 
ATOM     18  C1  <0> d          51.333  46.291  37.591  0.00  0.00     0.000 A 
ATOM     19  C6  <0> d          50.014  46.246  37.999  0.00  0.00     0.001 A 
ATOM     20  C5  <0> d          49.226  47.380  37.916  0.00  0.00     0.007 A 
ATOM     21  C17 <0> d          51.074  46.310  43.449  0.00  0.00     0.268 C 
ATOM     22  C18 <0> d          50.961  46.806  44.892  0.00  0.00     0.176 C 
ATOM     23  C19 <0> d          49.534  46.670  45.358  0.00  0.00    -0.027 A 
ATOM     24  C24 <0> d          48.906  45.440  45.310  0.00  0.00     0.022 A 
ATOM     25  C23 <0> d          47.598  45.313  45.736  0.00  0.00    -0.001 A 
ATOM     26  C22 <0> d          46.912  46.424  46.204  0.00  0.00     0.074 A 
ATOM     27  C21 <0> d          47.545  47.657  46.255  0.00  0.00     0.038 A 
ATOM     28  C20 <0> d          48.854  47.778  45.830  0.00  0.00     0.012 A 
ATOM     29  C25 <0> d          46.914  43.971  45.684  0.00  0.00     0.205 C 
ATOM     30  O2  <0> d          45.795  44.041  44.799  0.00  0.00    -0.396 OA
ATOM     31  H34 <0> d          45.231  44.814  44.938  0.00  0.00     0.209 HD
ATOM     32  O3  <0> d          45.623  46.303  46.619  0.00  0.00    -0.360 OA
ATOM     33  H35 <0> d          44.971  46.420  45.915  0.00  0.00     0.217 HD
ATOM     34  O4  <0> d          51.814  46.028  45.732  0.00  0.00    -0.389 OA
ATOM     35  H36 <0> d          52.344  45.373  45.257  0.00  0.00     0.210 HD
ENDMDL
MODEL 3
REMARK VINA RESULT:      -7.3      2.311      3.755
ATOM      1  N1  <0> d          49.513  51.449  42.964  0.00  0.00    -0.072 N 
ATOM      2  H37 <0> d          49.240  52.437  43.028  0.00  0.00     0.277 HD
ATOM      3  H38 <0> d          50.479  51.340  43.292  0.00  0.00     0.277 HD
ATOM      4  C16 <0> d          49.425  51.011  41.558  0.00  0.00     0.232 C 
ATOM      5  C15 <0> d          50.801  50.527  41.096  0.00  0.00     0.027 C 
ATOM      6  C14 <0> d          50.720  49.047  40.717  0.00  0.00     0.002 C 
ATOM      7  C13 <0> d          52.124  48.518  40.421  0.00  0.00     0.002 C 
ATOM      8  C12 <0> d          52.023  47.140  39.766  0.00  0.00     0.026 C 
ATOM      9  C11 <0> d          50.627  46.562  40.006  0.00  0.00     0.167 C 
ATOM     10  O1  <0> d          50.149  45.957  38.803  0.00  0.00    -0.391 OA
ATOM     11  C10 <0> d          49.670  46.891  37.833  0.00  0.00     0.167 C 
ATOM     12  C9  <0> d          50.266  46.558  36.465  0.00  0.00     0.027 C 
ATOM     13  C8  <0> d          50.623  47.853  35.733  0.00  0.00     0.007 C 
ATOM     14  C7  <0> d          51.896  48.447  36.339  0.00  0.00     0.038 C 
ATOM     15  C4  <0> d          51.762  49.947  36.418  0.00  0.00    -0.058 A 
ATOM     16  C3  <0> d          51.309  50.659  35.324  0.00  0.00     0.007 A 
ATOM     17  C2  <0> d          51.186  52.035  35.396  0.00  0.00     0.001 A 
ATOM     18  C1  <0> d          51.515  52.696  36.564  0.00  0.00     0.000 A 
ATOM     19  C6  <0> d          51.969  51.985  37.658  0.00  0.00     0.001 A 
ATOM     20  C5  <0> d          52.087  50.609  37.587  0.00  0.00     0.007 A 
ATOM     21  C17 <0> d          48.616  50.640  43.811  0.00  0.00     0.268 C 
ATOM     22  C18 <0> d          49.426  50.031  44.958  0.00  0.00     0.176 C 
ATOM     23  C19 <0> d          50.114  48.779  44.476  0.00  0.00    -0.027 A 
ATOM     24  C24 <0> d          49.369  47.657  44.167  0.00  0.00     0.022 A 
ATOM     25  C23 <0> d          49.998  46.509  43.726  0.00  0.00    -0.001 A 
ATOM     26  C22 <0> d          51.379  46.480  43.600  0.00  0.00     0.074 A 
ATOM     27  C21 <0> d          52.125  47.609  43.906  0.00  0.00     0.038 A 
ATOM     28  C20 <0> d          51.490  48.755  44.346  0.00  0.00     0.012 A 
ATOM     29  C25 <0> d          49.184  45.286  43.388  0.00  0.00     0.205 C 
ATOM     30  O2  <0> d          48.807  44.618  44.594  0.00  0.00    -0.396 OA
ATOM     31  H34 <0> d          49.514  44.093  44.992  0.00  0.00     0.209 HD
ATOM     32  O3  <0> d          52.000  45.350  43.170  0.00  0.00    -0.360 OA
ATOM     33  H35 <0> d          51.884  45.171  42.228  0.00  0.00     0.217 HD
ATOM     34  O4  <0> d          50.404  50.972  45.404  0.00  0.00    -0.389 OA
ATOM     35  H36 <0> d          50.630  50.889  46.341  0.00  0.00     0.210 HD
ENDMDL
MODEL 4
REMARK VINA RESULT:      -7.3      1.465      1.733
ATOM      1  N1  <0> d          51.298  47.594  43.003  0.00  0.00    -0.072 N 
ATOM      2  H37 <0> d          50.418  48.059  42.756  0.00  0.00     0.277 HD
ATOM      3  H38 <0> d          51.872  48.228  43.571  0.00  0.00     0.277 HD
ATOM      4  C16 <0> d          52.031  47.252  41.769  0.00  0.00     0.232 C 
ATOM      5  C15 <0> d          51.935  48.421  40.788  0.00  0.00     0.027 C 
ATOM      6  C14 <0> d          51.928  47.886  39.354  0.00  0.00     0.002 C 
ATOM      7  C13 <0> d          50.826  46.835  39.208  0.00  0.00     0.002 C 
ATOM      8  C12 <0> d          49.757  47.348  38.241  0.00  0.00     0.026 C 
ATOM      9  C11 <0> d          50.019  46.782  36.845  0.00  0.00     0.167 C 
ATOM     10  O1  <0> d          51.137  47.454  36.261  0.00  0.00    -0.391 OA
ATOM     11  C10 <0> d          50.781  48.403  35.252  0.00  0.00     0.167 C 
ATOM     12  C9  <0> d          51.714  49.612  35.337  0.00  0.00     0.027 C 
ATOM     13  C8  <0> d          50.945  50.812  35.895  0.00  0.00     0.007 C 
ATOM     14  C7  <0> d          50.970  50.766  37.425  0.00  0.00     0.038 C 
ATOM     15  C4  <0> d          51.927  51.810  37.942  0.00  0.00    -0.058 A 
ATOM     16  C3  <0> d          51.954  53.068  37.370  0.00  0.00     0.007 A 
ATOM     17  C2  <0> d          52.832  54.025  37.844  0.00  0.00     0.001 A 
ATOM     18  C1  <0> d          53.681  53.724  38.892  0.00  0.00     0.000 A 
ATOM     19  C6  <0> d          53.655  52.466  39.464  0.00  0.00     0.001 A 
ATOM     20  C5  <0> d          52.774  51.510  38.992  0.00  0.00     0.007 A 
ATOM     21  C17 <0> d          51.004  46.375  43.780  0.00  0.00     0.268 C 
ATOM     22  C18 <0> d          50.864  46.746  45.259  0.00  0.00     0.176 C 
ATOM     23  C19 <0> d          49.412  46.677  45.657  0.00  0.00    -0.027 A 
ATOM     24  C24 <0> d          48.719  45.488  45.537  0.00  0.00     0.022 A 
ATOM     25  C23 <0> d          47.388  45.424  45.901  0.00  0.00    -0.001 A 
ATOM     26  C22 <0> d          46.746  46.555  46.381  0.00  0.00     0.074 A 
ATOM     27  C21 <0> d          47.445  47.747  46.505  0.00  0.00     0.038 A 
ATOM     28  C20 <0> d          48.776  47.806  46.141  0.00  0.00     0.012 A 
ATOM     29  C25 <0> d          46.632  44.126  45.771  0.00  0.00     0.205 C 
ATOM     30  O2  <0> d          45.549  44.297  44.855  0.00  0.00    -0.396 OA
ATOM     31  H34 <0> d          44.892  43.588  44.884  0.00  0.00     0.209 HD
ATOM     32  O3  <0> d          45.434  46.495  46.735  0.00  0.00    -0.360 OA
ATOM     33  H35 <0> d          45.234  46.928  47.576  0.00  0.00     0.217 HD
ATOM     34  O4  <0> d          51.622  45.832  46.053  0.00  0.00    -0.389 OA
ATOM     35  H36 <0> d          52.554  45.769  45.799  0.00  0.00     0.210 HD
ENDMDL
MODEL 5
REMARK VINA RESULT:      -7.2      2.819      5.104
ATOM      1  N1  <0> d          51.061  45.637  38.196  0.00  0.00    -0.072 N 
ATOM      2  H37 <0> d          51.904  45.141  37.885  0.00  0.00     0.277 HD
ATOM      3  H38 <0> d          50.386  44.960  38.571  0.00  0.00     0.277 HD
ATOM      4  C16 <0> d          50.457  46.338  37.047  0.00  0.00     0.232 C 
ATOM      5  C15 <0> d          49.117  46.939  37.473  0.00  0.00     0.027 C 
ATOM      6  C14 <0> d          48.885  48.253  36.725  0.00  0.00     0.002 C 
ATOM      7  C13 <0> d          48.712  49.390  37.733  0.00  0.00     0.002 C 
ATOM      8  C12 <0> d          48.618  48.810  39.145  0.00  0.00     0.026 C 
ATOM      9  C11 <0> d          47.805  49.755  40.031  0.00  0.00     0.167 C 
ATOM     10  O1  <0> d          48.643  50.278  41.064  0.00  0.00    -0.391 OA
ATOM     11  C10 <0> d          49.611  51.223  40.603  0.00  0.00     0.167 C 
ATOM     12  C9  <0> d          51.007  50.779  41.044  0.00  0.00     0.027 C 
ATOM     13  C8  <0> d          52.054  51.372  40.098  0.00  0.00     0.007 C 
ATOM     14  C7  <0> d          52.576  50.277  39.165  0.00  0.00     0.038 C 
ATOM     15  C4  <0> d          52.155  50.581  37.750  0.00  0.00    -0.058 A 
ATOM     16  C3  <0> d          52.366  49.650  36.751  0.00  0.00     0.007 A 
ATOM     17  C2  <0> d          51.980  49.929  35.452  0.00  0.00     0.001 A 
ATOM     18  C1  <0> d          51.382  51.139  35.155  0.00  0.00     0.000 A 
ATOM     19  C6  <0> d          51.172  52.071  36.153  0.00  0.00     0.001 A 
ATOM     20  C5  <0> d          51.554  51.790  37.453  0.00  0.00     0.007 A 
ATOM     21  C17 <0> d          51.424  46.600  39.252  0.00  0.00     0.268 C 
ATOM     22  C18 <0> d          51.745  45.835  40.538  0.00  0.00     0.176 C 
ATOM     23  C19 <0> d          51.561  46.747  41.724  0.00  0.00    -0.027 A 
ATOM     24  C24 <0> d          50.289  47.033  42.184  0.00  0.00     0.022 A 
ATOM     25  C23 <0> d          50.118  47.869  43.270  0.00  0.00    -0.001 A 
ATOM     26  C22 <0> d          51.223  48.429  43.893  0.00  0.00     0.074 A 
ATOM     27  C21 <0> d          52.499  48.139  43.432  0.00  0.00     0.038 A 
ATOM     28  C20 <0> d          52.664  47.300  42.346  0.00  0.00     0.012 A 
ATOM     29  C25 <0> d          48.731  48.179  43.772  0.00  0.00     0.205 C 
ATOM     30  O2  <0> d          48.515  49.591  43.732  0.00  0.00    -0.396 OA
ATOM     31  H34 <0> d          49.278  50.114  44.012  0.00  0.00     0.209 HD
ATOM     32  O3  <0> d          51.057  49.258  44.959  0.00  0.00    -0.360 OA
ATOM     33  H35 <0> d          50.608  48.847  45.710  0.00  0.00     0.217 HD
ATOM     34  O4  <0> d          50.869  44.713  40.657  0.00  0.00    -0.389 OA
ATOM     35  H36 <0> d          51.089  43.977  40.069  0.00  0.00     0.210 HD
ENDMDL
MODEL 6
REMARK VINA RESULT:      -7.2      2.456      3.569
ATOM      1  N1  <0> d          48.655  51.678  42.570  0.00  0.00    -0.072 N 
ATOM      2  H37 <0> d          48.448  52.669  42.403  0.00  0.00     0.277 HD
ATOM      3  H38 <0> d          49.534  51.597  43.094  0.00  0.00     0.277 HD
ATOM      4  C16 <0> d          48.795  50.985  41.275  0.00  0.00     0.232 C 
ATOM      5  C15 <0> d          50.261  50.601  41.067  0.00  0.00     0.027 C 
ATOM      6  C14 <0> d          50.342  49.175  40.518  0.00  0.00     0.002 C 
ATOM      7  C13 <0> d          51.710  48.578  40.850  0.00  0.00     0.002 C 
ATOM      8  C12 <0> d          52.019  47.438  39.877  0.00  0.00     0.026 C 
ATOM      9  C11 <0> d          51.401  46.140  40.401  0.00  0.00     0.167 C 
ATOM     10  O1  <0> d          50.925  45.362  39.301  0.00  0.00    -0.391 OA
ATOM     11  C10 <0> d          50.794  46.099  38.083  0.00  0.00     0.167 C 
ATOM     12  C9  <0> d          49.318  46.173  37.687  0.00  0.00     0.027 C 
ATOM     13  C8  <0> d          48.954  47.617  37.339  0.00  0.00     0.007 C 
ATOM     14  C7  <0> d          50.057  48.227  36.472  0.00  0.00     0.038 C 
ATOM     15  C4  <0> d          50.324  49.641  36.920  0.00  0.00    -0.058 A 
ATOM     16  C3  <0> d          49.273  50.518  37.105  0.00  0.00     0.007 A 
ATOM     17  C2  <0> d          49.517  51.815  37.516  0.00  0.00     0.001 A 
ATOM     18  C1  <0> d          50.815  52.234  37.743  0.00  0.00     0.000 A 
ATOM     19  C6  <0> d          51.867  51.358  37.557  0.00  0.00     0.001 A 
ATOM     20  C5  <0> d          51.622  50.059  37.150  0.00  0.00     0.007 A 
ATOM     21  C17 <0> d          47.562  51.078  43.358  0.00  0.00     0.268 C 
ATOM     22  C18 <0> d          47.660  49.553  43.269  0.00  0.00     0.176 C 
ATOM     23  C19 <0> d          48.084  48.999  44.606  0.00  0.00    -0.027 A 
ATOM     24  C24 <0> d          48.547  47.701  44.700  0.00  0.00     0.022 A 
ATOM     25  C23 <0> d          48.936  47.192  45.923  0.00  0.00    -0.001 A 
ATOM     26  C22 <0> d          48.855  47.982  47.060  0.00  0.00     0.074 A 
ATOM     27  C21 <0> d          48.393  49.287  46.963  0.00  0.00     0.038 A 
ATOM     28  C20 <0> d          48.007  49.792  45.736  0.00  0.00     0.012 A 
ATOM     29  C25 <0> d          49.442  45.775  46.025  0.00  0.00     0.205 C 
ATOM     30  O2  <0> d          50.799  45.786  46.472  0.00  0.00    -0.396 OA
ATOM     31  H34 <0> d          51.449  45.711  45.760  0.00  0.00     0.209 HD
ATOM     32  O3  <0> d          49.232  47.482  48.267  0.00  0.00    -0.360 OA
ATOM     33  H35 <0> d          50.125  47.736  48.536  0.00  0.00     0.217 HD
ATOM     34  O4  <0> d          46.386  49.013  42.912  0.00  0.00    -0.389 OA
ATOM     35  H36 <0> d          46.063  48.332  43.518  0.00  0.00     0.210 HD
ENDMDL
MODEL 7
REMARK VINA RESULT:      -7.1      2.413      3.541
ATOM      1  N1  <0> d          49.527  51.597  42.408  0.00  0.00    -0.072 N 
ATOM      2  H37 <0> d          48.801  52.293  42.202  0.00  0.00     0.277 HD
ATOM      3  H38 <0> d          50.334  52.063  42.839  0.00  0.00     0.277 HD
ATOM      4  C16 <0> d          49.952  50.951  41.152  0.00  0.00     0.232 C 
ATOM      5  C15 <0> d          48.975  51.328  40.037  0.00  0.00     0.027 C 
ATOM      6  C14 <0> d          49.100  50.325  38.888  0.00  0.00     0.002 C 
ATOM      7  C13 <0> d          48.278  49.076  39.210  0.00  0.00     0.002 C 
ATOM      8  C12 <0> d          48.770  47.908  38.354  0.00  0.00     0.026 C 
ATOM      9  C11 <0> d          50.240  47.627  38.671  0.00  0.00     0.167 C 
ATOM     10  O1  <0> d          50.949  47.376  37.456  0.00  0.00    -0.391 OA
ATOM     11  C10 <0> d          50.103  47.176  36.321  0.00  0.00     0.167 C 
ATOM     12  C9  <0> d          50.537  48.112  35.191  0.00  0.00     0.027 C 
ATOM     13  C8  <0> d          51.727  48.955  35.654  0.00  0.00     0.007 C 
ATOM     14  C7  <0> d          51.363  50.439  35.571  0.00  0.00     0.038 C 
ATOM     15  C4  <0> d          51.863  51.148  36.804  0.00  0.00    -0.058 A 
ATOM     16  C3  <0> d          51.711  52.516  36.925  0.00  0.00     0.007 A 
ATOM     17  C2  <0> d          52.170  53.167  38.056  0.00  0.00     0.001 A 
ATOM     18  C1  <0> d          52.780  52.447  39.066  0.00  0.00     0.000 A 
ATOM     19  C6  <0> d          52.934  51.079  38.945  0.00  0.00     0.001 A 
ATOM     20  C5  <0> d          52.470  50.428  37.816  0.00  0.00     0.007 A 
ATOM     21  C17 <0> d          48.986  50.594  43.345  0.00  0.00     0.268 C 
ATOM     22  C18 <0> d          49.082  49.207  42.703  0.00  0.00     0.176 C 
ATOM     23  C19 <0> d          49.983  48.331  43.536  0.00  0.00    -0.027 A 
ATOM     24  C24 <0> d          49.441  47.509  44.506  0.00  0.00     0.022 A 
ATOM     25  C23 <0> d          50.264  46.706  45.271  0.00  0.00    -0.001 A 
ATOM     26  C22 <0> d          51.637  46.731  45.071  0.00  0.00     0.074 A 
ATOM     27  C21 <0> d          52.178  47.554  44.094  0.00  0.00     0.038 A 
ATOM     28  C20 <0> d          51.350  48.354  43.330  0.00  0.00     0.012 A 
ATOM     29  C25 <0> d          49.673  45.809  46.328  0.00  0.00     0.205 C 
ATOM     30  O2  <0> d          49.958  46.346  47.622  0.00  0.00    -0.396 OA
ATOM     31  H34 <0> d          49.577  45.839  48.351  0.00  0.00     0.209 HD
ATOM     32  O3  <0> d          52.450  45.945  45.826  0.00  0.00    -0.360 OA
ATOM     33  H35 <0> d          53.042  45.382  45.310  0.00  0.00     0.217 HD
ATOM     34  O4  <0> d          47.781  48.624  42.631  0.00  0.00    -0.389 OA
ATOM     35  H36 <0> d          47.785  47.659  42.557  0.00  0.00     0.210 HD
ENDMDL
MODEL 8
REMARK VINA RESULT:      -7.1      2.118      3.577
ATOM      1  N1  <0> d          51.018  45.595  40.312  0.00  0.00    -0.072 N 
ATOM      2  H37 <0> d          51.348  44.681  39.983  0.00  0.00     0.277 HD
ATOM      3  H38 <0> d          50.012  45.682  40.126  0.00  0.00     0.277 HD
ATOM      4  C16 <0> d          51.739  46.661  39.590  0.00  0.00     0.232 C 
ATOM      5  C15 <0> d          51.426  46.557  38.097  0.00  0.00     0.027 C 
ATOM      6  C14 <0> d          49.942  46.233  37.908  0.00  0.00     0.002 C 
ATOM      7  C13 <0> d          49.237  47.429  37.267  0.00  0.00     0.002 C 
ATOM      8  C12 <0> d          48.644  48.318  38.361  0.00  0.00     0.026 C 
ATOM      9  C11 <0> d          48.856  49.788  37.994  0.00  0.00     0.167 C 
ATOM     10  O1  <0> d          49.088  50.546  39.183  0.00  0.00    -0.391 OA
ATOM     11  C10 <0> d          49.912  49.882  40.144  0.00  0.00     0.167 C 
ATOM     12  C9  <0> d          50.883  50.888  40.765  0.00  0.00     0.027 C 
ATOM     13  C8  <0> d          52.260  50.738  40.115  0.00  0.00     0.007 C 
ATOM     14  C7  <0> d          52.497  51.901  39.149  0.00  0.00     0.038 C 
ATOM     15  C4  <0> d          52.147  51.470  37.748  0.00  0.00    -0.058 A 
ATOM     16  C3  <0> d          52.424  50.182  37.332  0.00  0.00     0.007 A 
ATOM     17  C2  <0> d          52.103  49.786  36.046  0.00  0.00     0.001 A 
ATOM     18  C1  <0> d          51.504  50.679  35.178  0.00  0.00     0.000 A 
ATOM     19  C6  <0> d          51.228  51.967  35.593  0.00  0.00     0.001 A 
ATOM     20  C5  <0> d          51.545  52.362  36.881  0.00  0.00     0.007 A 
ATOM     21  C17 <0> d          51.256  45.706  41.763  0.00  0.00     0.268 C 
ATOM     22  C18 <0> d          50.605  46.990  42.282  0.00  0.00     0.176 C 
ATOM     23  C19 <0> d          49.674  46.656  43.419  0.00  0.00    -0.027 A 
ATOM     24  C24 <0> d          49.130  45.389  43.517  0.00  0.00     0.022 A 
ATOM     25  C23 <0> d          48.277  45.081  44.558  0.00  0.00    -0.001 A 
ATOM     26  C22 <0> d          47.959  46.047  45.502  0.00  0.00     0.074 A 
ATOM     27  C21 <0> d          48.509  47.317  45.404  0.00  0.00     0.038 A 
ATOM     28  C20 <0> d          49.364  47.619  44.362  0.00  0.00     0.012 A 
ATOM     29  C25 <0> d          47.685  43.699  44.665  0.00  0.00     0.205 C 
ATOM     30  O2  <0> d          46.271  43.771  44.472  0.00  0.00    -0.396 OA
ATOM     31  H34 <0> d          45.754  43.414  45.207  0.00  0.00     0.209 HD
ATOM     32  O3  <0> d          47.115  45.747  46.525  0.00  0.00    -0.360 OA
ATOM     33  H35 <0> d          47.181  44.834  46.835  0.00  0.00     0.217 HD
ATOM     34  O4  <0> d          51.617  47.887  42.740  0.00  0.00    -0.389 OA
ATOM     35  H36 <0> d          52.519  47.565  42.603  0.00  0.00     0.210 HD
ENDMDL
MODEL 9
REMARK VINA RESULT:      -7.1      2.274      4.358
ATOM      1  N1  <0> d          49.050  51.632  42.626  0.00  0.00    -0.072 N 
ATOM      2  H37 <0> d          48.549  52.522  42.740  0.00  0.00     0.277 HD
ATOM      3  H38 <0> d          50.005  51.729  42.989  0.00  0.00     0.277 HD
ATOM      4  C16 <0> d          49.107  51.287  41.193  0.00  0.00     0.232 C 
ATOM      5  C15 <0> d          50.571  51.203  40.756  0.00  0.00     0.027 C 
ATOM      6  C14 <0> d          50.639  50.920  39.254  0.00  0.00     0.002 C 
ATOM      7  C13 <0> d          52.096  50.707  38.840  0.00  0.00     0.002 C 
ATOM      8  C12 <0> d          52.144  50.081  37.445  0.00  0.00     0.026 C 
ATOM      9  C11 <0> d          50.764  50.180  36.794  0.00  0.00     0.167 C 
ATOM     10  O1  <0> d          50.854  49.780  35.425  0.00  0.00    -0.391 OA
ATOM     11  C10 <0> d          51.174  48.398  35.244  0.00  0.00     0.167 C 
ATOM     12  C9  <0> d          49.909  47.555  35.410  0.00  0.00     0.027 C 
ATOM     13  C8  <0> d          50.144  46.484  36.477  0.00  0.00     0.007 C 
ATOM     14  C7  <0> d          49.223  46.743  37.671  0.00  0.00     0.038 C 
ATOM     15  C4  <0> d          50.055  47.020  38.897  0.00  0.00    -0.058 A 
ATOM     16  C3  <0> d          51.422  46.819  38.864  0.00  0.00     0.007 A 
ATOM     17  C2  <0> d          52.186  47.073  39.988  0.00  0.00     0.001 A 
ATOM     18  C1  <0> d          51.582  47.529  41.145  0.00  0.00     0.000 A 
ATOM     19  C6  <0> d          50.215  47.730  41.178  0.00  0.00     0.001 A 
ATOM     20  C5  <0> d          49.452  47.480  40.052  0.00  0.00     0.007 A 
ATOM     21  C17 <0> d          48.346  50.578  43.381  0.00  0.00     0.268 C 
ATOM     22  C18 <0> d          48.825  50.599  44.835  0.00  0.00     0.176 C 
ATOM     23  C19 <0> d          49.180  49.199  45.265  0.00  0.00    -0.027 A 
ATOM     24  C24 <0> d          50.322  48.594  44.775  0.00  0.00     0.022 A 
ATOM     25  C23 <0> d          50.649  47.311  45.168  0.00  0.00    -0.001 A 
ATOM     26  C22 <0> d          49.826  46.626  46.049  0.00  0.00     0.074 A 
ATOM     27  C21 <0> d          48.682  47.236  46.544  0.00  0.00     0.038 A 
ATOM     28  C20 <0> d          48.361  48.520  46.149  0.00  0.00     0.012 A 
ATOM     29  C25 <0> d          51.895  46.653  44.633  0.00  0.00     0.205 C 
ATOM     30  O2  <0> d          52.643  46.099  45.718  0.00  0.00    -0.396 OA
ATOM     31  H34 <0> d          52.275  45.279  46.072  0.00  0.00     0.209 HD
ATOM     32  O3  <0> d          50.143  45.361  46.434  0.00  0.00    -0.360 OA
ATOM     33  H35 <0> d          50.836  44.950  45.900  0.00  0.00     0.217 HD
ATOM     34  O4  <0> d          49.974  51.439  44.946  0.00  0.00    -0.389 OA
ATOM     35  H36 <0> d          50.771  51.074  44.536  0.00  0.00     0.210 HD
ENDMDL
MODEL 10
REMARK VINA RESULT:      -7.1      2.148      3.541
ATOM      1  N1  <0> d          51.064  45.842  40.979  0.00  0.00    -0.072 N 
ATOM      2  H37 <0> d          51.332  45.076  40.351  0.00  0.00     0.277 HD
ATOM      3  H38 <0> d          50.046  45.974  40.941  0.00  0.00     0.277 HD
ATOM      4  C16 <0> d          51.731  47.084  40.544  0.00  0.00     0.232 C 
ATOM      5  C15 <0> d          51.785  47.115  39.016  0.00  0.00     0.027 C 
ATOM      6  C14 <0> d          50.848  46.046  38.450  0.00  0.00     0.002 C 
ATOM      7  C13 <0> d          49.954  46.669  37.377  0.00  0.00     0.002 C 
ATOM      8  C12 <0> d          49.007  47.681  38.025  0.00  0.00     0.026 C 
ATOM      9  C11 <0> d          48.799  48.864  37.079  0.00  0.00     0.167 C 
ATOM     10  O1  <0> d          48.838  50.082  37.824  0.00  0.00    -0.391 OA
ATOM     11  C10 <0> d          49.117  49.903  39.215  0.00  0.00     0.167 C 
ATOM     12  C9  <0> d          49.816  51.149  39.760  0.00  0.00     0.027 C 
ATOM     13  C8  <0> d          51.316  50.875  39.896  0.00  0.00     0.007 C 
ATOM     14  C7  <0> d          52.090  51.791  38.945  0.00  0.00     0.038 C 
ATOM     15  C4  <0> d          51.937  51.290  37.532  0.00  0.00    -0.058 A 
ATOM     16  C3  <0> d          51.339  52.089  36.576  0.00  0.00     0.007 A 
ATOM     17  C2  <0> d          51.198  51.630  35.279  0.00  0.00     0.001 A 
ATOM     18  C1  <0> d          51.658  50.372  34.939  0.00  0.00     0.000 A 
ATOM     19  C6  <0> d          52.255  49.572  35.894  0.00  0.00     0.001 A 
ATOM     20  C5  <0> d          52.400  50.033  37.190  0.00  0.00     0.007 A 
ATOM     21  C17 <0> d          51.460  45.502  42.359  0.00  0.00     0.268 C 
ATOM     22  C18 <0> d          51.190  46.704  43.268  0.00  0.00     0.176 C 
ATOM     23  C19 <0> d          49.996  46.414  44.141  0.00  0.00    -0.027 A 
ATOM     24  C24 <0> d          49.735  47.210  45.240  0.00  0.00     0.022 A 
ATOM     25  C23 <0> d          48.642  46.945  46.042  0.00  0.00    -0.001 A 
ATOM     26  C22 <0> d          47.811  45.874  45.749  0.00  0.00     0.074 A 
ATOM     27  C21 <0> d          48.073  45.078  44.643  0.00  0.00     0.038 A 
ATOM     28  C20 <0> d          49.167  45.349  43.843  0.00  0.00     0.012 A 
ATOM     29  C25 <0> d          48.357  47.815  47.239  0.00  0.00     0.205 C 
ATOM     30  O2  <0> d          49.305  47.531  48.270  0.00  0.00    -0.396 OA
ATOM     31  H34 <0> d          49.678  48.318  48.690  0.00  0.00     0.209 HD
ATOM     32  O3  <0> d          46.738  45.608  46.540  0.00  0.00    -0.360 OA
ATOM     33  H35 <0> d          45.886  45.801  46.125  0.00  0.00     0.217 HD
ATOM     34  O4  <0> d          52.334  46.948  44.087  0.00  0.00    -0.389 OA
ATOM     35  H36 <0> d          52.664  47.857  44.042  0.00  0.00     0.210 HD
ENDMDL
MODEL 1
REMARK VINA RESULT:      -7.6      0.000      0.000
ATOM      1  N1  <0> d          50.206  45.904  38.728  0.00  0.00    -0.072 N 
ATOM      2  H37 <0> d          49.348  46.421  38.951  0.00  0.00     0.277 HD
ATOM      3  H38 <0> d          49.962  44.981  38.352  0.00  0.00     0.277 HD
ATOM      4  C16 <0> d          51.003  45.732  39.958  0.00  0.00     0.232 C 
ATOM      5  C15 <0> d          52.033  46.859  40.050  0.00  0.00     0.027 C 
ATOM      6  C14 <0> d          52.546  46.965  41.488  0.00  0.00     0.002 C 
ATOM      7  C13 <0> d          51.359  46.982  42.453  0.00  0.00     0.002 C 
ATOM      8  C12 <0> d          51.643  47.961  43.594  0.00  0.00     0.026 C 
ATOM      9  C11 <0> d          50.350  48.679  43.984  0.00  0.00     0.167 C 
ATOM     10  O1  <0> d          50.280  49.934  43.305  0.00  0.00    -0.391 OA
ATOM     11  C10 <0> d          49.708  49.855  41.997  0.00  0.00     0.167 C 
ATOM     12  C9  <0> d          50.389  50.874  41.081  0.00  0.00     0.027 C 
ATOM     13  C8  <0> d          51.781  50.367  40.699  0.00  0.00     0.007 C 
ATOM     14  C7  <0> d          51.987  50.530  39.191  0.00  0.00     0.038 C 
ATOM     15  C4  <0> d          52.631  51.863  38.914  0.00  0.00    -0.058 A 
ATOM     16  C3  <0> d          52.013  52.769  38.072  0.00  0.00     0.007 A 
ATOM     17  C2  <0> d          52.604  53.993  37.818  0.00  0.00     0.001 A 
ATOM     18  C1  <0> d          53.814  54.311  38.405  0.00  0.00     0.000 A 
ATOM     19  C6  <0> d          54.433  53.406  39.247  0.00  0.00     0.001 A 
ATOM     20  C5  <0> d          53.840  52.184  39.505  0.00  0.00     0.007 A 
ATOM     21  C17 <0> d          50.978  46.653  37.718  0.00  0.00     0.268 C 
ATOM     22  C18 <0> d          50.086  46.919  36.503  0.00  0.00     0.176 C 
ATOM     23  C19 <0> d          50.275  48.342  36.043  0.00  0.00    -0.027 A 
ATOM     24  C24 <0> d          49.547  49.359  36.629  0.00  0.00     0.022 A 
ATOM     25  C23 <0> d          49.719  50.664  36.210  0.00  0.00    -0.001 A 
ATOM     26  C22 <0> d          50.618  50.952  35.194  0.00  0.00     0.074 A 
ATOM     27  C21 <0> d          51.351  49.929  34.608  0.00  0.00     0.038 A 
ATOM     28  C20 <0> d          51.175  48.626  35.033  0.00  0.00     0.012 A 
ATOM     29  C25 <0> d          48.925  51.774  36.851  0.00  0.00     0.205 C 
ATOM     30  O2  <0> d          48.637  51.430  38.207  0.00  0.00    -0.396 OA
ATOM     31  H34 <0> d          47.864  50.860  38.313  0.00  0.00     0.209 HD
ATOM     32  O3  <0> d          50.785  52.234  34.774  0.00  0.00    -0.360 OA
ATOM     33  H35 <0> d          50.324  52.441  33.950  0.00  0.00     0.217 HD
ATOM     34  O4  <0> d          50.442  46.025  35.448  0.00  0.00    -0.389 OA
ATOM     35  H36 <0> d          50.246  45.096  35.634  0.00  0.00     0.210 HD
ENDMDL
MODEL 2
REMARK VINA RESULT:      -7.5      2.558      7.731
ATOM      1  N1  <0> d          52.266  47.999  40.892  0.00  0.00    -0.072 N 
ATOM      2  H37 <0> d          53.191  47.879  40.465  0.00  0.00     0.277 HD
ATOM      3  H38 <0> d          51.555  47.554  40.300  0.00  0.00     0.277 HD
ATOM      4  C16 <0> d          51.968  49.439  41.009  0.00  0.00     0.232 C 
ATOM      5  C15 <0> d          52.192  50.110  39.653  0.00  0.00     0.027 C 
ATOM      6  C14 <0> d          53.468  50.954  39.705  0.00  0.00     0.002 C 
ATOM      7  C13 <0> d          53.139  52.399  39.328  0.00  0.00     0.002 C 
ATOM      8  C12 <0> d          51.815  52.439  38.563  0.00  0.00     0.026 C 
ATOM      9  C11 <0> d          51.913  53.457  37.425  0.00  0.00     0.167 C 
ATOM     10  O1  <0> d          50.693  53.459  36.683  0.00  0.00    -0.391 OA
ATOM     11  C10 <0> d          50.252  52.159  36.287  0.00  0.00     0.167 C 
ATOM     12  C9  <0> d          50.910  51.779  34.960  0.00  0.00     0.027 C 
ATOM     13  C8  <0> d          51.721  50.493  35.141  0.00  0.00     0.007 C 
ATOM     14  C7  <0> d          50.906  49.301  34.636  0.00  0.00     0.038 C 
ATOM     15  C4  <0> d          50.929  48.204  35.668  0.00  0.00    -0.058 A 
ATOM     16  C3  <0> d          51.977  48.120  36.565  0.00  0.00     0.007 A 
ATOM     17  C2  <0> d          51.998  47.113  37.513  0.00  0.00     0.001 A 
ATOM     18  C1  <0> d          50.970  46.191  37.565  0.00  0.00     0.000 A 
ATOM     19  C6  <0> d          49.920  46.276  36.668  0.00  0.00     0.001 A 
ATOM     20  C5  <0> d          49.897  47.284  35.723  0.00  0.00     0.007 A 
ATOM     21  C17 <0> d          52.258  47.364  42.224  0.00  0.00     0.268 C 
ATOM     22  C18 <0> d          51.206  46.253  42.242  0.00  0.00     0.176 C 
ATOM     23  C19 <0> d          50.422  46.324  43.528  0.00  0.00    -0.027 A 
ATOM     24  C24 <0> d          49.439  45.390  43.790  0.00  0.00     0.022 A 
ATOM     25  C23 <0> d          48.719  45.453  44.967  0.00  0.00    -0.001 A 
ATOM     26  C22 <0> d          48.980  46.461  45.884  0.00  0.00     0.074 A 
ATOM     27  C21 <0> d          49.970  47.397  45.620  0.00  0.00     0.038 A 
ATOM     28  C20 <0> d          50.687  47.327  44.442  0.00  0.00     0.012 A 
ATOM     29  C25 <0> d          47.648  44.433  45.252  0.00  0.00     0.205 C 
ATOM     30  O2  <0> d          46.969  44.104  44.040  0.00  0.00    -0.396 OA
ATOM     31  H34 <0> d          47.489  43.559  43.434  0.00  0.00     0.209 HD
ATOM     32  O3  <0> d          48.270  46.531  47.041  0.00  0.00    -0.360 OA
ATOM     33  H35 <0> d          47.366  46.853  46.929  0.00  0.00     0.217 HD
ATOM     34  O4  <0> d          50.321  46.418  41.134  0.00  0.00    -0.389 OA
ATOM     35  H36 <0> d          50.382  45.714  40.472  0.00  0.00     0.210 HD
ENDMDL
MODEL 3
REMARK VINA RESULT:      -7.5      3.066      7.578
ATOM      1  N1  <0> d          49.984  46.613  41.974  0.00  0.00    -0.072 N 
ATOM      2  H37 <0> d          49.619  45.916  41.316  0.00  0.00     0.277 HD
ATOM      3  H38 <0> d          49.201  47.094  42.432  0.00  0.00     0.277 HD
ATOM      4  C16 <0> d          50.794  47.601  41.236  0.00  0.00     0.232 C 
ATOM      5  C15 <0> d          51.670  46.870  40.217  0.00  0.00     0.027 C 
ATOM      6  C14 <0> d          51.294  47.321  38.804  0.00  0.00     0.002 C 
ATOM      7  C13 <0> d          49.862  47.860  38.805  0.00  0.00     0.002 C 
ATOM      8  C12 <0> d          49.256  47.703  37.408  0.00  0.00     0.026 C 
ATOM      9  C11 <0> d          50.227  46.928  36.515  0.00  0.00     0.167 C 
ATOM     10  O1  <0> d          50.412  47.637  35.289  0.00  0.00    -0.391 OA
ATOM     11  C10 <0> d          51.357  48.706  35.373  0.00  0.00     0.167 C 
ATOM     12  C9  <0> d          50.849  49.900  34.562  0.00  0.00     0.027 C 
ATOM     13  C8  <0> d          51.120  51.194  35.333  0.00  0.00     0.007 C 
ATOM     14  C7  <0> d          50.673  51.024  36.787  0.00  0.00     0.038 C 
ATOM     15  C4  <0> d          51.724  51.595  37.705  0.00  0.00    -0.058 A 
ATOM     16  C3  <0> d          52.370  50.774  38.611  0.00  0.00     0.007 A 
ATOM     17  C2  <0> d          53.334  51.297  39.453  0.00  0.00     0.001 A 
ATOM     18  C1  <0> d          53.652  52.641  39.389  0.00  0.00     0.000 A 
ATOM     19  C6  <0> d          53.006  53.462  38.483  0.00  0.00     0.001 A 
ATOM     20  C5  <0> d          52.045  52.938  37.637  0.00  0.00     0.007 A 
ATOM     21  C17 <0> d          50.806  45.937  42.996  0.00  0.00     0.268 C 
ATOM     22  C18 <0> d          50.746  46.740  44.297  0.00  0.00     0.176 C 
ATOM     23  C19 <0> d          49.372  46.613  44.903  0.00  0.00    -0.027 A 
ATOM     24  C24 <0> d          48.786  45.368  45.029  0.00  0.00     0.022 A 
ATOM     25  C23 <0> d          47.526  45.248  45.584  0.00  0.00    -0.001 A 
ATOM     26  C22 <0> d          46.847  46.381  46.009  0.00  0.00     0.074 A 
ATOM     27  C21 <0> d          47.439  47.630  45.885  0.00  0.00     0.038 A 
ATOM     28  C20 <0> d          48.699  47.742  45.331  0.00  0.00     0.012 A 
ATOM     29  C25 <0> d          46.888  43.890  45.721  0.00  0.00     0.205 C 
ATOM     30  O2  <0> d          45.679  43.853  44.961  0.00  0.00    -0.396 OA
ATOM     31  H34 <0> d          44.885  43.705  45.492  0.00  0.00     0.209 HD
ATOM     32  O3  <0> d          45.605  46.267  46.550  0.00  0.00    -0.360 OA
ATOM     33  H35 <0> d          45.020  45.666  46.070  0.00  0.00     0.217 HD
ATOM     34  O4  <0> d          51.719  46.235  45.212  0.00  0.00    -0.389 OA
ATOM     35  H36 <0> d          52.061  45.359  44.982  0.00  0.00     0.210 HD
ENDMDL
MODEL 4
REMARK VINA RESULT:      -7.3      2.566      6.911
ATOM      1  N1  <0> d          50.627  46.157  40.773  0.00  0.00    -0.072 N 
ATOM      2  H37 <0> d          49.659  45.818  40.760  0.00  0.00     0.277 HD
ATOM      3  H38 <0> d          50.631  47.182  40.810  0.00  0.00     0.277 HD
ATOM      4  C16 <0> d          51.313  45.713  39.544  0.00  0.00     0.232 C 
ATOM      5  C15 <0> d          51.199  46.808  38.482  0.00  0.00     0.027 C 
ATOM      6  C14 <0> d          49.749  46.908  38.005  0.00  0.00     0.002 C 
ATOM      7  C13 <0> d          49.350  48.380  37.891  0.00  0.00     0.002 C 
ATOM      8  C12 <0> d          48.569  48.795  39.139  0.00  0.00     0.026 C 
ATOM      9  C11 <0> d          49.362  49.853  39.908  0.00  0.00     0.167 C 
ATOM     10  O1  <0> d          50.264  49.208  40.810  0.00  0.00    -0.391 OA
ATOM     11  C10 <0> d          51.606  49.693  40.733  0.00  0.00     0.167 C 
ATOM     12  C9  <0> d          51.594  51.169  40.334  0.00  0.00     0.027 C 
ATOM     13  C8  <0> d          52.648  51.415  39.252  0.00  0.00     0.007 C 
ATOM     14  C7  <0> d          52.004  52.137  38.066  0.00  0.00     0.038 C 
ATOM     15  C4  <0> d          51.778  51.157  36.945  0.00  0.00    -0.058 A 
ATOM     16  C3  <0> d          50.819  51.416  35.982  0.00  0.00     0.007 A 
ATOM     17  C2  <0> d          50.612  50.516  34.952  0.00  0.00     0.001 A 
ATOM     18  C1  <0> d          51.363  49.358  34.885  0.00  0.00     0.000 A 
ATOM     19  C6  <0> d          52.322  49.099  35.847  0.00  0.00     0.001 A 
ATOM     20  C5  <0> d          52.533  50.001  36.874  0.00  0.00     0.007 A 
ATOM     21  C17 <0> d          51.314  45.623  41.964  0.00  0.00     0.268 C 
ATOM     22  C18 <0> d          51.355  46.705  43.045  0.00  0.00     0.176 C 
ATOM     23  C19 <0> d          50.204  46.507  43.998  0.00  0.00    -0.027 A 
ATOM     24  C24 <0> d          50.028  47.375  45.058  0.00  0.00     0.022 A 
ATOM     25  C23 <0> d          48.973  47.196  45.932  0.00  0.00    -0.001 A 
ATOM     26  C22 <0> d          48.094  46.138  45.748  0.00  0.00     0.074 A 
ATOM     27  C21 <0> d          48.271  45.270  44.681  0.00  0.00     0.038 A 
ATOM     28  C20 <0> d          49.327  45.455  43.809  0.00  0.00     0.012 A 
ATOM     29  C25 <0> d          48.782  48.144  47.088  0.00  0.00     0.205 C 
ATOM     30  O2  <0> d          49.238  47.526  48.291  0.00  0.00    -0.396 OA
ATOM     31  H34 <0> d          50.145  47.756  48.532  0.00  0.00     0.209 HD
ATOM     32  O3  <0> d          47.059  45.956  46.610  0.00  0.00    -0.360 OA
ATOM     33  H35 <0> d          46.188  46.015  46.195  0.00  0.00     0.217 HD
ATOM     34  O4  <0> d          52.588  46.615  43.762  0.00  0.00    -0.389 OA
ATOM     35  H36 <0> d          53.307  47.135  43.376  0.00  0.00     0.210 HD
ENDMDL
MODEL 5
REMARK VINA RESULT:      -7.3      2.406      6.020
ATOM      1  N1  <0> d          51.368  45.965  43.018  0.00  0.00    -0.072 N 
ATOM      2  H37 <0> d          51.923  45.282  43.546  0.00  0.00     0.277 HD
ATOM      3  H38 <0> d          50.653  45.474  42.470  0.00  0.00     0.277 HD
ATOM      4  C16 <0> d          52.256  46.708  42.103  0.00  0.00     0.232 C 
ATOM      5  C15 <0> d          51.699  46.619  40.681  0.00  0.00     0.027 C 
ATOM      6  C14 <0> d          51.841  47.978  39.991  0.00  0.00     0.002 C 
ATOM      7  C13 <0> d          52.171  49.047  41.034  0.00  0.00     0.002 C 
ATOM      8  C12 <0> d          51.777  50.424  40.496  0.00  0.00     0.026 C 
ATOM      9  C11 <0> d          52.853  50.921  39.528  0.00  0.00     0.167 C 
ATOM     10  O1  <0> d          52.375  52.078  38.840  0.00  0.00    -0.391 OA
ATOM     11  C10 <0> d          51.792  51.796  37.566  0.00  0.00     0.167 C 
ATOM     12  C9  <0> d          52.303  50.446  37.059  0.00  0.00     0.027 C 
ATOM     13  C8  <0> d          51.776  50.199  35.643  0.00  0.00     0.007 C 
ATOM     14  C7  <0> d          50.259  50.006  35.690  0.00  0.00     0.038 C 
ATOM     15  C4  <0> d          49.940  48.685  36.340  0.00  0.00    -0.058 A 
ATOM     16  C3  <0> d          50.492  47.519  35.844  0.00  0.00     0.007 A 
ATOM     17  C2  <0> d          50.199  46.306  36.441  0.00  0.00     0.001 A 
ATOM     18  C1  <0> d          49.355  46.260  37.534  0.00  0.00     0.000 A 
ATOM     19  C6  <0> d          48.804  47.426  38.031  0.00  0.00     0.001 A 
ATOM     20  C5  <0> d          49.099  48.639  37.437  0.00  0.00     0.007 A 
ATOM     21  C17 <0> d          50.711  46.892  43.959  0.00  0.00     0.268 C 
ATOM     22  C18 <0> d          49.217  46.957  43.636  0.00  0.00     0.176 C 
ATOM     23  C19 <0> d          48.911  48.254  42.932  0.00  0.00    -0.027 A 
ATOM     24  C24 <0> d          49.059  49.454  43.601  0.00  0.00     0.022 A 
ATOM     25  C23 <0> d          48.780  50.644  42.958  0.00  0.00    -0.001 A 
ATOM     26  C22 <0> d          48.344  50.634  41.641  0.00  0.00     0.074 A 
ATOM     27  C21 <0> d          48.201  49.428  40.969  0.00  0.00     0.038 A 
ATOM     28  C20 <0> d          48.482  48.241  41.618  0.00  0.00     0.012 A 
ATOM     29  C25 <0> d          48.942  51.953  43.688  0.00  0.00     0.205 C 
ATOM     30  O2  <0> d          47.714  52.680  43.641  0.00  0.00    -0.396 OA
ATOM     31  H34 <0> d          47.482  53.004  42.760  0.00  0.00     0.209 HD
ATOM     32  O3  <0> d          48.064  51.803  41.007  0.00  0.00    -0.360 OA
ATOM     33  H35 <0> d          48.810  52.415  40.961  0.00  0.00     0.217 HD
ATOM     34  O4  <0> d          48.865  45.861  42.790  0.00  0.00    -0.389 OA
ATOM     35  H36 <0> d          48.080  46.018  42.247  0.00  0.00     0.210 HD
ENDMDL
MODEL 6
REMARK VINA RESULT:      -7.3      3.186      8.231
ATOM      1  N1  <0> d          51.055  48.949  43.237  0.00  0.00    -0.072 N 
ATOM      2  H37 <0> d          51.077  49.501  44.102  0.00  0.00     0.277 HD
ATOM      3  H38 <0> d          51.944  49.064  42.735  0.00  0.00     0.277 HD
ATOM      4  C16 <0> d          49.951  49.428  42.384  0.00  0.00     0.232 C 
ATOM      5  C15 <0> d          50.236  49.043  40.931  0.00  0.00     0.027 C 
ATOM      6  C14 <0> d          48.926  48.666  40.237  0.00  0.00     0.002 C 
ATOM      7  C13 <0> d          48.845  49.371  38.882  0.00  0.00     0.002 C 
ATOM      8  C12 <0> d          50.004  50.362  38.751  0.00  0.00     0.026 C 
ATOM      9  C11 <0> d          49.454  51.752  38.428  0.00  0.00     0.167 C 
ATOM     10  O1  <0> d          50.085  52.249  37.247  0.00  0.00    -0.391 OA
ATOM     11  C10 <0> d          49.782  51.502  36.067  0.00  0.00     0.167 C 
ATOM     12  C9  <0> d          50.963  51.576  35.098  0.00  0.00     0.027 C 
ATOM     13  C8  <0> d          51.831  50.326  35.254  0.00  0.00     0.007 C 
ATOM     14  C7  <0> d          51.054  49.101  34.766  0.00  0.00     0.038 C 
ATOM     15  C4  <0> d          50.951  48.095  35.883  0.00  0.00    -0.058 A 
ATOM     16  C3  <0> d          49.875  47.228  35.937  0.00  0.00     0.007 A 
ATOM     17  C2  <0> d          49.781  46.304  36.961  0.00  0.00     0.001 A 
ATOM     18  C1  <0> d          50.763  46.247  37.933  0.00  0.00     0.000 A 
ATOM     19  C6  <0> d          51.840  47.113  37.879  0.00  0.00     0.001 A 
ATOM     20  C5  <0> d          51.936  48.034  36.852  0.00  0.00     0.007 A 
ATOM     21  C17 <0> d          50.864  47.525  43.571  0.00  0.00     0.268 C 
ATOM     22  C18 <0> d          50.811  47.371  45.093  0.00  0.00     0.176 C 
ATOM     23  C19 <0> d          49.385  47.141  45.525  0.00  0.00    -0.027 A 
ATOM     24  C24 <0> d          48.835  45.876  45.444  0.00  0.00     0.022 A 
ATOM     25  C23 <0> d          47.529  45.662  45.839  0.00  0.00    -0.001 A 
ATOM     26  C22 <0> d          46.767  46.720  46.313  0.00  0.00     0.074 A 
ATOM     27  C21 <0> d          47.323  47.990  46.397  0.00  0.00     0.038 A 
ATOM     28  C20 <0> d          48.630  48.196  46.001  0.00  0.00     0.012 A 
ATOM     29  C25 <0> d          46.930  44.282  45.751  0.00  0.00     0.205 C 
ATOM     30  O2  <0> d          45.825  44.300  44.847  0.00  0.00    -0.396 OA
ATOM     31  H34 <0> d          45.108  43.698  45.089  0.00  0.00     0.209 HD
ATOM     32  O3  <0> d          45.480  46.515  46.697  0.00  0.00    -0.360 OA
ATOM     33  H35 <0> d          44.874  46.342  45.965  0.00  0.00     0.217 HD
ATOM     34  O4  <0> d          51.614  46.258  45.487  0.00  0.00    -0.389 OA
ATOM     35  H36 <0> d          51.598  45.519  44.861  0.00  0.00     0.210 HD
ENDMDL
MODEL 7
REMARK VINA RESULT:      -7.3      2.951      7.869
ATOM      1  N1  <0> d          52.415  46.946  42.714  0.00  0.00    -0.072 N 
ATOM      2  H37 <0> d          53.439  46.880  42.713  0.00  0.00     0.277 HD
ATOM      3  H38 <0> d          52.017  46.095  42.300  0.00  0.00     0.277 HD
ATOM      4  C16 <0> d          52.003  48.113  41.911  0.00  0.00     0.232 C 
ATOM      5  C15 <0> d          51.816  47.681  40.456  0.00  0.00     0.027 C 
ATOM      6  C14 <0> d          51.830  48.915  39.551  0.00  0.00     0.002 C 
ATOM      7  C13 <0> d          52.430  50.099  40.312  0.00  0.00     0.002 C 
ATOM      8  C12 <0> d          53.310  50.920  39.367  0.00  0.00     0.026 C 
ATOM      9  C11 <0> d          53.014  52.408  39.560  0.00  0.00     0.167 C 
ATOM     10  O1  <0> d          52.670  52.991  38.301  0.00  0.00    -0.391 OA
ATOM     11  C10 <0> d          51.367  52.636  37.833  0.00  0.00     0.167 C 
ATOM     12  C9  <0> d          51.424  52.357  36.330  0.00  0.00     0.027 C 
ATOM     13  C8  <0> d          51.578  50.853  36.095  0.00  0.00     0.007 C 
ATOM     14  C7  <0> d          50.242  50.270  35.626  0.00  0.00     0.038 C 
ATOM     15  C4  <0> d          50.008  48.945  36.302  0.00  0.00    -0.058 A 
ATOM     16  C3  <0> d          48.936  48.786  37.161  0.00  0.00     0.007 A 
ATOM     17  C2  <0> d          48.721  47.569  37.781  0.00  0.00     0.001 A 
ATOM     18  C1  <0> d          49.577  46.511  37.543  0.00  0.00     0.000 A 
ATOM     19  C6  <0> d          50.649  46.669  36.683  0.00  0.00     0.001 A 
ATOM     20  C5  <0> d          50.862  47.884  36.059  0.00  0.00     0.007 A 
ATOM     21  C17 <0> d          51.935  47.084  44.102  0.00  0.00     0.268 C 
ATOM     22  C18 <0> d          50.737  48.036  44.125  0.00  0.00     0.176 C 
ATOM     23  C19 <0> d          49.537  47.318  44.687  0.00  0.00    -0.027 A 
ATOM     24  C24 <0> d          49.250  46.029  44.280  0.00  0.00     0.022 A 
ATOM     25  C23 <0> d          48.150  45.369  44.794  0.00  0.00    -0.001 A 
ATOM     26  C22 <0> d          47.330  46.004  45.714  0.00  0.00     0.074 A 
ATOM     27  C21 <0> d          47.621  47.298  46.124  0.00  0.00     0.038 A 
ATOM     28  C20 <0> d          48.723  47.952  45.608  0.00  0.00     0.012 A 
ATOM     29  C25 <0> d          47.839  43.963  44.350  0.00  0.00     0.205 C 
ATOM     30  O2  <0> d          47.988  43.071  45.455  0.00  0.00    -0.396 OA
ATOM     31  H34 <0> d          47.947  42.136  45.215  0.00  0.00     0.209 HD
ATOM     32  O3  <0> d          46.244  45.360  46.218  0.00  0.00    -0.360 OA
ATOM     33  H35 <0> d          46.407  44.436  46.448  0.00  0.00     0.217 HD
ATOM     34  O4  <0> d          51.043  49.166  44.943  0.00  0.00    -0.389 OA
ATOM     35  H36 <0> d          50.319  49.803  45.022  0.00  0.00     0.210 HD
ENDMDL
MODEL 8
REMARK VINA RESULT:      -7.3      2.642      7.930
ATOM      1  N1  <0> d          47.664  51.588  41.989  0.00  0.00    -0.072 N 
ATOM      2  H37 <0> d          46.961  51.316  42.685  0.00  0.00     0.277 HD
ATOM      3  H38 <0> d          47.576  52.591  41.788  0.00  0.00     0.277 HD
ATOM      4  C16 <0> d          47.438  50.823  40.748  0.00  0.00     0.232 C 
ATOM      5  C15 <0> d          48.393  49.629  40.714  0.00  0.00     0.027 C 
ATOM      6  C14 <0> d          48.550  49.141  39.272  0.00  0.00     0.002 C 
ATOM      7  C13 <0> d          49.319  50.186  38.461  0.00  0.00     0.002 C 
ATOM      8  C12 <0> d          50.675  50.446  39.119  0.00  0.00     0.026 C 
ATOM      9  C11 <0> d          51.250  51.765  38.599  0.00  0.00     0.167 C 
ATOM     10  O1  <0> d          51.851  51.550  37.321  0.00  0.00    -0.391 OA
ATOM     11  C10 <0> d          51.332  52.389  36.286  0.00  0.00     0.167 C 
ATOM     12  C9  <0> d          50.981  51.536  35.066  0.00  0.00     0.027 C 
ATOM     13  C8  <0> d          51.837  50.267  35.066  0.00  0.00     0.007 C 
ATOM     14  C7  <0> d          50.976  49.071  34.651  0.00  0.00     0.038 C 
ATOM     15  C4  <0> d          50.880  48.100  35.799  0.00  0.00    -0.058 A 
ATOM     16  C3  <0> d          51.900  48.025  36.729  0.00  0.00     0.007 A 
ATOM     17  C2  <0> d          51.811  47.134  37.783  0.00  0.00     0.001 A 
ATOM     18  C1  <0> d          50.703  46.317  37.906  0.00  0.00     0.000 A 
ATOM     19  C6  <0> d          49.682  46.393  36.977  0.00  0.00     0.001 A 
ATOM     20  C5  <0> d          49.768  47.287  35.925  0.00  0.00     0.007 A 
ATOM     21  C17 <0> d          49.011  51.313  42.523  0.00  0.00     0.268 C 
ATOM     22  C18 <0> d          48.922  51.143  44.041  0.00  0.00     0.176 C 
ATOM     23  C19 <0> d          49.444  49.781  44.424  0.00  0.00    -0.027 A 
ATOM     24  C24 <0> d          48.841  49.074  45.446  0.00  0.00     0.022 A 
ATOM     25  C23 <0> d          49.316  47.825  45.799  0.00  0.00    -0.001 A 
ATOM     26  C22 <0> d          50.405  47.285  45.130  0.00  0.00     0.074 A 
ATOM     27  C21 <0> d          51.006  47.995  44.101  0.00  0.00     0.038 A 
ATOM     28  C20 <0> d          50.525  49.242  43.752  0.00  0.00     0.012 A 
ATOM     29  C25 <0> d          48.657  47.054  46.914  0.00  0.00     0.205 C 
ATOM     30  O2  <0> d          49.651  46.619  47.843  0.00  0.00    -0.396 OA
ATOM     31  H34 <0> d          50.490  46.370  47.434  0.00  0.00     0.209 HD
ATOM     32  O3  <0> d          50.879  46.060  45.478  0.00  0.00    -0.360 OA
ATOM     33  H35 <0> d          50.191  45.429  45.731  0.00  0.00     0.217 HD
ATOM     34  O4  <0> d          49.708  52.150  44.679  0.00  0.00    -0.389 OA
ATOM     35  H36 <0> d          49.189  52.880  45.047  0.00  0.00     0.210 HD
ENDMDL
MODEL 9
REMARK VINA RESULT:      -7.2      2.991      7.719
ATOM      1  N1  <0> d          51.433  47.625  43.419  0.00  0.00    -0.072 N 
ATOM      2  H37 <0> d          51.086  48.365  42.799  0.00  0.00     0.277 HD
ATOM      3  H38 <0> d          52.458  47.601  43.384  0.00  0.00     0.277 HD
ATOM      4  C16 <0> d          50.902  46.325  42.966  0.00  0.00     0.232 C 
ATOM      5  C15 <0> d          51.451  46.016  41.572  0.00  0.00     0.027 C 
ATOM      6  C14 <0> d          52.230  47.225  41.051  0.00  0.00     0.002 C 
ATOM      7  C13 <0> d          52.088  47.306  39.530  0.00  0.00     0.002 C 
ATOM      8  C12 <0> d          50.956  46.383  39.073  0.00  0.00     0.026 C 
ATOM      9  C11 <0> d          51.020  46.211  37.555  0.00  0.00     0.167 C 
ATOM     10  O1  <0> d          49.695  46.201  37.022  0.00  0.00    -0.391 OA
ATOM     11  C10 <0> d          49.299  47.438  36.424  0.00  0.00     0.167 C 
ATOM     12  C9  <0> d          50.419  47.944  35.512  0.00  0.00     0.027 C 
ATOM     13  C8  <0> d          50.639  49.439  35.754  0.00  0.00     0.007 C 
ATOM     14  C7  <0> d          49.801  49.890  36.953  0.00  0.00     0.038 C 
ATOM     15  C4  <0> d          50.715  50.352  38.058  0.00  0.00    -0.058 A 
ATOM     16  C3  <0> d          50.223  50.517  39.339  0.00  0.00     0.007 A 
ATOM     17  C2  <0> d          51.061  50.941  40.354  0.00  0.00     0.001 A 
ATOM     18  C1  <0> d          52.392  51.202  40.087  0.00  0.00     0.000 A 
ATOM     19  C6  <0> d          52.885  51.037  38.805  0.00  0.00     0.001 A 
ATOM     20  C5  <0> d          52.048  50.608  37.792  0.00  0.00     0.007 A 
ATOM     21  C17 <0> d          50.998  47.902  44.801  0.00  0.00     0.268 C 
ATOM     22  C18 <0> d          49.925  48.994  44.777  0.00  0.00     0.176 C 
ATOM     23  C19 <0> d          48.667  48.476  45.427  0.00  0.00    -0.027 A 
ATOM     24  C24 <0> d          48.369  47.128  45.376  0.00  0.00     0.022 A 
ATOM     25  C23 <0> d          47.217  46.650  45.971  0.00  0.00    -0.001 A 
ATOM     26  C22 <0> d          46.356  47.527  46.614  0.00  0.00     0.074 A 
ATOM     27  C21 <0> d          46.659  48.880  46.667  0.00  0.00     0.038 A 
ATOM     28  C20 <0> d          47.813  49.351  46.071  0.00  0.00     0.012 A 
ATOM     29  C25 <0> d          46.894  45.179  45.916  0.00  0.00     0.205 C 
ATOM     30  O2  <0> d          45.798  44.966  45.026  0.00  0.00    -0.396 OA
ATOM     31  H34 <0> d          46.060  44.686  44.139  0.00  0.00     0.209 HD
ATOM     32  O3  <0> d          45.219  47.062  47.195  0.00  0.00    -0.360 OA
ATOM     33  H35 <0> d          45.006  47.485  48.038  0.00  0.00     0.217 HD
ATOM     34  O4  <0> d          50.395  50.137  45.492  0.00  0.00    -0.389 OA
ATOM     35  H36 <0> d          51.015  50.688  44.993  0.00  0.00     0.210 HD
ENDMDL
MODEL 10
REMARK VINA RESULT:      -7.2      2.853      7.923
ATOM      1  N1  <0> d          48.616  51.639  42.410  0.00  0.00    -0.072 N 
ATOM      2  H37 <0> d          48.135  52.458  42.021  0.00  0.00     0.277 HD
ATOM      3  H38 <0> d          49.544  51.917  42.751  0.00  0.00     0.277 HD
ATOM      4  C16 <0> d          48.773  50.621  41.354  0.00  0.00     0.232 C 
ATOM      5  C15 <0> d          48.790  51.313  39.989  0.00  0.00     0.027 C 
ATOM      6  C14 <0> d          48.973  50.266  38.889  0.00  0.00     0.002 C 
ATOM      7  C13 <0> d          49.565  48.990  39.491  0.00  0.00     0.002 C 
ATOM      8  C12 <0> d          48.952  47.768  38.804  0.00  0.00     0.026 C 
ATOM      9  C11 <0> d          50.051  46.750  38.498  0.00  0.00     0.167 C 
ATOM     10  O1  <0> d          50.780  47.171  37.344  0.00  0.00    -0.391 OA
ATOM     11  C10 <0> d          50.090  46.956  36.111  0.00  0.00     0.167 C 
ATOM     12  C9  <0> d          50.419  48.090  35.138  0.00  0.00     0.027 C 
ATOM     13  C8  <0> d          51.680  48.818  35.609  0.00  0.00     0.007 C 
ATOM     14  C7  <0> d          51.477  50.329  35.477  0.00  0.00     0.038 C 
ATOM     15  C4  <0> d          51.875  51.003  36.764  0.00  0.00    -0.058 A 
ATOM     16  C3  <0> d          52.471  50.269  37.773  0.00  0.00     0.007 A 
ATOM     17  C2  <0> d          52.836  50.888  38.955  0.00  0.00     0.001 A 
ATOM     18  C1  <0> d          52.607  52.240  39.127  0.00  0.00     0.000 A 
ATOM     19  C6  <0> d          52.012  52.974  38.117  0.00  0.00     0.001 A 
ATOM     20  C5  <0> d          51.650  52.356  36.934  0.00  0.00     0.007 A 
ATOM     21  C17 <0> d          47.827  51.096  43.531  0.00  0.00     0.268 C 
ATOM     22  C18 <0> d          48.503  51.477  44.850  0.00  0.00     0.176 C 
ATOM     23  C19 <0> d          48.678  50.243  45.699  0.00  0.00    -0.027 A 
ATOM     24  C24 <0> d          49.397  49.168  45.215  0.00  0.00     0.022 A 
ATOM     25  C23 <0> d          49.559  48.037  45.991  0.00  0.00    -0.001 A 
ATOM     26  C22 <0> d          48.993  47.978  47.256  0.00  0.00     0.074 A 
ATOM     27  C21 <0> d          48.274  49.061  47.742  0.00  0.00     0.038 A 
ATOM     28  C20 <0> d          48.116  50.190  46.962  0.00  0.00     0.012 A 
ATOM     29  C25 <0> d          50.345  46.865  45.461  0.00  0.00     0.205 C 
ATOM     30  O2  <0> d          49.563  45.676  45.577  0.00  0.00    -0.396 OA
ATOM     31  H34 <0> d          49.967  44.991  46.127  0.00  0.00     0.209 HD
ATOM     32  O3  <0> d          49.145  46.865  48.020  0.00  0.00    -0.360 OA
ATOM     33  H35 <0> d          48.312  46.448  48.277  0.00  0.00     0.217 HD
ATOM     34  O4  <0> d          49.781  52.055  44.580  0.00  0.00    -0.389 OA
ATOM     35  H36 <0> d          49.939  52.893  45.038  0.00  0.00     0.210 HD
ENDMDL
MODEL 1
REMARK VINA RESULT:      -7.8      0.000      0.000
ATOM      1  N1  <0> d          50.277  46.271  41.749  0.00  0.00    -0.072 N 
ATOM      2  H37 <0> d          49.349  45.859  41.601  0.00  0.00     0.277 HD
ATOM      3  H38 <0> d          50.220  47.290  41.634  0.00  0.00     0.277 HD
ATOM      4  C16 <0> d          51.218  45.721  40.754  0.00  0.00     0.232 C 
ATOM      5  C15 <0> d          52.086  46.853  40.204  0.00  0.00     0.027 C 
ATOM      6  C14 <0> d          51.661  47.172  38.769  0.00  0.00     0.002 C 
ATOM      7  C13 <0> d          50.994  45.942  38.150  0.00  0.00     0.002 C 
ATOM      8  C12 <0> d          49.829  46.385  37.263  0.00  0.00     0.026 C 
ATOM      9  C11 <0> d          49.130  47.586  37.902  0.00  0.00     0.167 C 
ATOM     10  O1  <0> d          48.989  48.626  36.934  0.00  0.00    -0.391 OA
ATOM     11  C10 <0> d          49.064  49.944  37.481  0.00  0.00     0.167 C 
ATOM     12  C9  <0> d          49.036  49.865  39.008  0.00  0.00     0.027 C 
ATOM     13  C8  <0> d          49.997  50.903  39.591  0.00  0.00     0.007 C 
ATOM     14  C7  <0> d          51.429  50.564  39.174  0.00  0.00     0.038 C 
ATOM     15  C4  <0> d          52.176  51.835  38.859  0.00  0.00    -0.058 A 
ATOM     16  C3  <0> d          53.324  52.152  39.559  0.00  0.00     0.007 A 
ATOM     17  C2  <0> d          54.011  53.318  39.270  0.00  0.00     0.001 A 
ATOM     18  C1  <0> d          53.547  54.165  38.281  0.00  0.00     0.000 A 
ATOM     19  C6  <0> d          52.398  53.847  37.581  0.00  0.00     0.001 A 
ATOM     20  C5  <0> d          51.715  52.680  37.867  0.00  0.00     0.007 A 
ATOM     21  C17 <0> d          50.736  45.959  43.115  0.00  0.00     0.268 C 
ATOM     22  C18 <0> d          50.436  47.150  44.029  0.00  0.00     0.176 C 
ATOM     23  C19 <0> d          49.121  46.926  44.729  0.00  0.00    -0.027 A 
ATOM     24  C24 <0> d          48.616  45.647  44.859  0.00  0.00     0.022 A 
ATOM     25  C23 <0> d          47.410  45.439  45.501  0.00  0.00    -0.001 A 
ATOM     26  C22 <0> d          46.703  46.519  46.009  0.00  0.00     0.074 A 
ATOM     27  C21 <0> d          47.212  47.803  45.882  0.00  0.00     0.038 A 
ATOM     28  C20 <0> d          48.420  48.004  45.239  0.00  0.00     0.012 A 
ATOM     29  C25 <0> d          46.861  44.043  45.644  0.00  0.00     0.205 C 
ATOM     30  O2  <0> d          45.716  43.894  44.802  0.00  0.00    -0.396 OA
ATOM     31  H34 <0> d          45.341  44.732  44.496  0.00  0.00     0.209 HD
ATOM     32  O3  <0> d          45.512  46.318  46.636  0.00  0.00    -0.360 OA
ATOM     33  H35 <0> d          45.363  45.404  46.913  0.00  0.00     0.217 HD
ATOM     34  O4  <0> d          51.476  47.280  44.998  0.00  0.00    -0.389 OA
ATOM     35  H36 <0> d          51.998  48.091  44.910  0.00  0.00     0.210 HD
ENDMDL
MODEL 2
REMARK VINA RESULT:      -7.8      1.823      2.611
ATOM      1  N1  <0> d          49.832  47.154  40.642  0.00  0.00    -0.072 N 
ATOM      2  H37 <0> d          49.757  46.152  40.434  0.00  0.00     0.277 HD
ATOM      3  H38 <0> d          48.931  47.498  40.994  0.00  0.00     0.277 HD
ATOM      4  C16 <0> d          50.181  47.883  39.407  0.00  0.00     0.232 C 
ATOM      5  C15 <0> d          48.912  48.490  38.806  0.00  0.00     0.027 C 
ATOM      6  C14 <0> d          48.801  48.084  37.334  0.00  0.00     0.002 C 
ATOM      7  C13 <0> d          49.481  46.730  37.126  0.00  0.00     0.002 C 
ATOM      8  C12 <0> d          50.124  46.690  35.738  0.00  0.00     0.026 C 
ATOM      9  C11 <0> d          50.417  48.117  35.271  0.00  0.00     0.167 C 
ATOM     10  O1  <0> d          51.705  48.517  35.741  0.00  0.00    -0.391 OA
ATOM     11  C10 <0> d          52.135  49.787  35.249  0.00  0.00     0.167 C 
ATOM     12  C9  <0> d          50.921  50.698  35.058  0.00  0.00     0.027 C 
ATOM     13  C8  <0> d          51.291  52.131  35.447  0.00  0.00     0.007 C 
ATOM     14  C7  <0> d          50.800  52.418  36.867  0.00  0.00     0.038 C 
ATOM     15  C4  <0> d          51.979  52.724  37.755  0.00  0.00    -0.058 A 
ATOM     16  C3  <0> d          52.605  53.953  37.671  0.00  0.00     0.007 A 
ATOM     17  C2  <0> d          53.687  54.236  38.485  0.00  0.00     0.001 A 
ATOM     18  C1  <0> d          54.141  53.288  39.382  0.00  0.00     0.000 A 
ATOM     19  C6  <0> d          53.514  52.058  39.466  0.00  0.00     0.001 A 
ATOM     20  C5  <0> d          52.431  51.778  38.655  0.00  0.00     0.007 A 
ATOM     21  C17 <0> d          50.869  47.362  41.669  0.00  0.00     0.268 C 
ATOM     22  C18 <0> d          50.985  46.099  42.526  0.00  0.00     0.176 C 
ATOM     23  C19 <0> d          50.202  46.283  43.800  0.00  0.00    -0.027 A 
ATOM     24  C24 <0> d          49.218  45.376  44.143  0.00  0.00     0.022 A 
ATOM     25  C23 <0> d          48.499  45.543  45.311  0.00  0.00    -0.001 A 
ATOM     26  C22 <0> d          48.762  46.626  46.137  0.00  0.00     0.074 A 
ATOM     27  C21 <0> d          49.754  47.534  45.794  0.00  0.00     0.038 A 
ATOM     28  C20 <0> d          50.470  47.361  44.624  0.00  0.00     0.012 A 
ATOM     29  C25 <0> d          47.425  44.553  45.686  0.00  0.00     0.205 C 
ATOM     30  O2  <0> d          47.867  43.231  45.369  0.00  0.00    -0.396 OA
ATOM     31  H34 <0> d          48.447  42.839  46.037  0.00  0.00     0.209 HD
ATOM     32  O3  <0> d          48.052  46.796  47.285  0.00  0.00    -0.360 OA
ATOM     33  H35 <0> d          47.270  46.231  47.350  0.00  0.00     0.217 HD
ATOM     34  O4  <0> d          50.463  44.984  41.803  0.00  0.00    -0.389 OA
ATOM     35  H36 <0> d          51.121  44.304  41.598  0.00  0.00     0.210 HD
ENDMDL
MODEL 3
REMARK VINA RESULT:      -7.7      2.107      4.502
ATOM      1  N1  <0> d          50.794  46.524  41.187  0.00  0.00    -0.072 N 
ATOM      2  H37 <0> d          50.913  45.767  40.504  0.00  0.00     0.277 HD
ATOM      3  H38 <0> d          49.935  47.044  40.975  0.00  0.00     0.277 HD
ATOM      4  C16 <0> d          51.949  47.438  41.105  0.00  0.00     0.232 C 
ATOM      5  C15 <0> d          51.444  48.878  41.004  0.00  0.00     0.027 C 
ATOM      6  C14 <0> d          52.395  49.692  40.122  0.00  0.00     0.002 C 
ATOM      7  C13 <0> d          51.985  51.166  40.155  0.00  0.00     0.002 C 
ATOM      8  C12 <0> d          53.006  51.996  39.377  0.00  0.00     0.026 C 
ATOM      9  C11 <0> d          52.291  52.790  38.283  0.00  0.00     0.167 C 
ATOM     10  O1  <0> d          50.907  52.440  38.267  0.00  0.00    -0.391 OA
ATOM     11  C10 <0> d          50.359  52.292  36.956  0.00  0.00     0.167 C 
ATOM     12  C9  <0> d          51.473  51.920  35.976  0.00  0.00     0.027 C 
ATOM     13  C8  <0> d          51.285  50.474  35.512  0.00  0.00     0.007 C 
ATOM     14  C7  <0> d          52.138  49.545  36.378  0.00  0.00     0.038 C 
ATOM     15  C4  <0> d          51.304  48.373  36.829  0.00  0.00    -0.058 A 
ATOM     16  C3  <0> d          51.920  47.216  37.267  0.00  0.00     0.007 A 
ATOM     17  C2  <0> d          51.156  46.140  37.681  0.00  0.00     0.001 A 
ATOM     18  C1  <0> d          49.776  46.223  37.657  0.00  0.00     0.000 A 
ATOM     19  C6  <0> d          49.161  47.381  37.219  0.00  0.00     0.001 A 
ATOM     20  C5  <0> d          49.925  48.457  36.809  0.00  0.00     0.007 A 
ATOM     21  C17 <0> d          50.694  45.947  42.541  0.00  0.00     0.268 C 
ATOM     22  C18 <0> d          49.243  46.043  43.019  0.00  0.00     0.176 C 
ATOM     23  C19 <0> d          49.218  46.475  44.463  0.00  0.00    -0.027 A 
ATOM     24  C24 <0> d          48.462  47.567  44.844  0.00  0.00     0.022 A 
ATOM     25  C23 <0> d          48.437  47.965  46.167  0.00  0.00    -0.001 A 
ATOM     26  C22 <0> d          49.178  47.271  47.111  0.00  0.00     0.074 A 
ATOM     27  C21 <0> d          49.934  46.172  46.729  0.00  0.00     0.038 A 
ATOM     28  C20 <0> d          49.954  45.778  45.404  0.00  0.00     0.012 A 
ATOM     29  C25 <0> d          47.611  49.155  46.582  0.00  0.00     0.205 C 
ATOM     30  O2  <0> d          46.702  48.766  47.614  0.00  0.00    -0.396 OA
ATOM     31  H34 <0> d          46.638  47.809  47.742  0.00  0.00     0.209 HD
ATOM     32  O3  <0> d          49.161  47.664  48.414  0.00  0.00    -0.360 OA
ATOM     33  H35 <0> d          48.865  48.575  48.546  0.00  0.00     0.217 HD
ATOM     34  O4  <0> d          48.542  46.999  42.224  0.00  0.00    -0.389 OA
ATOM     35  H36 <0> d          48.925  47.888  42.246  0.00  0.00     0.210 HD
ENDMDL
MODEL 4
REMARK VINA RESULT:      -7.7      1.720      2.485
ATOM      1  N1  <0> d          52.611  47.620  43.730  0.00  0.00    -0.072 N 
ATOM      2  H37 <0> d          52.444  48.611  43.519  0.00  0.00     0.277 HD
ATOM      3  H38 <0> d          53.549  47.510  44.132  0.00  0.00     0.277 HD
ATOM      4  C16 <0> d          52.522  46.836  42.484  0.00  0.00     0.232 C 
ATOM      5  C15 <0> d          52.285  47.785  41.308  0.00  0.00     0.027 C 
ATOM      6  C14 <0> d          52.137  46.973  40.019  0.00  0.00     0.002 C 
ATOM      7  C13 <0> d          51.051  47.602  39.143  0.00  0.00     0.002 C 
ATOM      8  C12 <0> d          51.244  47.154  37.693  0.00  0.00     0.026 C 
ATOM      9  C11 <0> d          50.897  48.309  36.752  0.00  0.00     0.167 C 
ATOM     10  O1  <0> d          52.097  48.853  36.202  0.00  0.00    -0.391 OA
ATOM     11  C10 <0> d          51.912  49.527  34.956  0.00  0.00     0.167 C 
ATOM     12  C9  <0> d          50.748  50.512  35.076  0.00  0.00     0.027 C 
ATOM     13  C8  <0> d          51.292  51.917  35.343  0.00  0.00     0.007 C 
ATOM     14  C7  <0> d          50.735  52.436  36.670  0.00  0.00     0.038 C 
ATOM     15  C4  <0> d          51.871  52.673  37.633  0.00  0.00    -0.058 A 
ATOM     16  C3  <0> d          52.239  51.681  38.522  0.00  0.00     0.007 A 
ATOM     17  C2  <0> d          53.281  51.897  39.406  0.00  0.00     0.001 A 
ATOM     18  C1  <0> d          53.953  53.105  39.399  0.00  0.00     0.000 A 
ATOM     19  C6  <0> d          53.584  54.096  38.509  0.00  0.00     0.001 A 
ATOM     20  C5  <0> d          52.545  53.879  37.623  0.00  0.00     0.007 A 
ATOM     21  C17 <0> d          51.605  47.153  44.702  0.00  0.00     0.268 C 
ATOM     22  C18 <0> d          50.320  47.965  44.521  0.00  0.00     0.176 C 
ATOM     23  C19 <0> d          49.141  47.148  44.983  0.00  0.00    -0.027 A 
ATOM     24  C24 <0> d          47.920  47.758  45.197  0.00  0.00     0.022 A 
ATOM     25  C23 <0> d          46.838  47.010  45.621  0.00  0.00    -0.001 A 
ATOM     26  C22 <0> d          46.980  45.648  45.837  0.00  0.00     0.074 A 
ATOM     27  C21 <0> d          48.205  45.036  45.618  0.00  0.00     0.038 A 
ATOM     28  C20 <0> d          49.285  45.788  45.194  0.00  0.00     0.012 A 
ATOM     29  C25 <0> d          45.505  47.676  45.853  0.00  0.00     0.205 C 
ATOM     30  O2  <0> d          44.585  47.264  44.841  0.00  0.00    -0.396 OA
ATOM     31  H34 <0> d          43.666  47.506  45.021  0.00  0.00     0.209 HD
ATOM     32  O3  <0> d          45.917  44.911  46.260  0.00  0.00    -0.360 OA
ATOM     33  H35 <0> d          46.151  44.200  46.872  0.00  0.00     0.217 HD
ATOM     34  O4  <0> d          50.401  49.163  45.293  0.00  0.00    -0.389 OA
ATOM     35  H36 <0> d          49.699  49.255  45.953  0.00  0.00     0.210 HD
ENDMDL
MODEL 5
REMARK VINA RESULT:      -7.7      1.903      4.212
ATOM      1  N1  <0> d          51.034  47.881  41.172  0.00  0.00    -0.072 N 
ATOM      2  H37 <0> d          51.626  47.054  41.310  0.00  0.00     0.277 HD
ATOM      3  H38 <0> d          50.631  47.859  40.228  0.00  0.00     0.277 HD
ATOM      4  C16 <0> d          51.856  49.098  41.321  0.00  0.00     0.232 C 
ATOM      5  C15 <0> d          51.713  49.958  40.065  0.00  0.00     0.027 C 
ATOM      6  C14 <0> d          53.070  50.571  39.709  0.00  0.00     0.002 C 
ATOM      7  C13 <0> d          52.876  52.028  39.286  0.00  0.00     0.002 C 
ATOM      8  C12 <0> d          51.552  52.168  38.531  0.00  0.00     0.026 C 
ATOM      9  C11 <0> d          51.660  53.309  37.519  0.00  0.00     0.167 C 
ATOM     10  O1  <0> d          50.502  53.316  36.684  0.00  0.00    -0.391 OA
ATOM     11  C10 <0> d          50.173  52.039  36.135  0.00  0.00     0.167 C 
ATOM     12  C9  <0> d          51.221  51.647  35.092  0.00  0.00     0.027 C 
ATOM     13  C8  <0> d          51.221  50.127  34.914  0.00  0.00     0.007 C 
ATOM     14  C7  <0> d          52.043  49.482  36.031  0.00  0.00     0.038 C 
ATOM     15  C4  <0> d          51.261  48.345  36.638  0.00  0.00    -0.058 A 
ATOM     16  C3  <0> d          51.920  47.346  37.330  0.00  0.00     0.007 A 
ATOM     17  C2  <0> d          51.204  46.302  37.887  0.00  0.00     0.001 A 
ATOM     18  C1  <0> d          49.828  46.259  37.752  0.00  0.00     0.000 A 
ATOM     19  C6  <0> d          49.170  47.259  37.060  0.00  0.00     0.001 A 
ATOM     20  C5  <0> d          49.886  48.304  36.507  0.00  0.00     0.007 A 
ATOM     21  C17 <0> d          49.946  47.873  42.167  0.00  0.00     0.268 C 
ATOM     22  C18 <0> d          50.130  46.673  43.100  0.00  0.00     0.176 C 
ATOM     23  C19 <0> d          48.950  46.576  44.031  0.00  0.00    -0.027 A 
ATOM     24  C24 <0> d          48.471  45.337  44.412  0.00  0.00     0.022 A 
ATOM     25  C23 <0> d          47.389  45.245  45.265  0.00  0.00    -0.001 A 
ATOM     26  C22 <0> d          46.779  46.398  45.736  0.00  0.00     0.074 A 
ATOM     27  C21 <0> d          47.263  47.642  45.357  0.00  0.00     0.038 A 
ATOM     28  C20 <0> d          48.346  47.727  44.502  0.00  0.00     0.012 A 
ATOM     29  C25 <0> d          46.867  43.893  45.681  0.00  0.00     0.205 C 
ATOM     30  O2  <0> d          45.585  43.675  45.090  0.00  0.00    -0.396 OA
ATOM     31  H34 <0> d          45.110  42.912  45.448  0.00  0.00     0.209 HD
ATOM     32  O3  <0> d          45.709  46.311  46.572  0.00  0.00    -0.360 OA
ATOM     33  H35 <0> d          45.871  46.667  47.456  0.00  0.00     0.217 HD
ATOM     34  O4  <0> d          50.226  45.478  42.325  0.00  0.00    -0.389 OA
ATOM     35  H36 <0> d          51.127  45.134  42.240  0.00  0.00     0.210 HD
ENDMDL
MODEL 6
REMARK VINA RESULT:      -7.6      1.628      3.895
ATOM      1  N1  <0> d          52.185  46.159  43.541  0.00  0.00    -0.072 N 
ATOM      2  H37 <0> d          53.060  46.689  43.451  0.00  0.00     0.277 HD
ATOM      3  H38 <0> d          52.395  45.155  43.578  0.00  0.00     0.277 HD
ATOM      4  C16 <0> d          51.327  46.434  42.372  0.00  0.00     0.232 C 
ATOM      5  C15 <0> d          52.140  47.188  41.318  0.00  0.00     0.027 C 
ATOM      6  C14 <0> d          51.336  48.390  40.818  0.00  0.00     0.002 C 
ATOM      7  C13 <0> d          52.294  49.456  40.281  0.00  0.00     0.002 C 
ATOM      8  C12 <0> d          51.653  50.837  40.427  0.00  0.00     0.026 C 
ATOM      9  C11 <0> d          50.619  51.039  39.318  0.00  0.00     0.167 C 
ATOM     10  O1  <0> d          51.020  52.127  38.485  0.00  0.00    -0.391 OA
ATOM     11  C10 <0> d          51.937  51.761  37.452  0.00  0.00     0.167 C 
ATOM     12  C9  <0> d          51.221  51.787  36.101  0.00  0.00     0.027 C 
ATOM     13  C8  <0> d          51.154  50.369  35.531  0.00  0.00     0.007 C 
ATOM     14  C7  <0> d          52.057  49.446  36.351  0.00  0.00     0.038 C 
ATOM     15  C4  <0> d          51.252  48.279  36.863  0.00  0.00    -0.058 A 
ATOM     16  C3  <0> d          49.871  48.333  36.846  0.00  0.00     0.007 A 
ATOM     17  C2  <0> d          49.131  47.263  37.315  0.00  0.00     0.001 A 
ATOM     18  C1  <0> d          49.774  46.139  37.801  0.00  0.00     0.000 A 
ATOM     19  C6  <0> d          51.155  46.086  37.818  0.00  0.00     0.001 A 
ATOM     20  C5  <0> d          51.894  47.154  37.345  0.00  0.00     0.007 A 
ATOM     21  C17 <0> d          51.499  46.560  44.784  0.00  0.00     0.268 C 
ATOM     22  C18 <0> d          50.455  47.631  44.456  0.00  0.00     0.176 C 
ATOM     23  C19 <0> d          49.131  47.244  45.062  0.00  0.00    -0.027 A 
ATOM     24  C24 <0> d          48.725  45.923  45.048  0.00  0.00     0.022 A 
ATOM     25  C23 <0> d          47.511  45.566  45.604  0.00  0.00    -0.001 A 
ATOM     26  C22 <0> d          46.697  46.536  46.170  0.00  0.00     0.074 A 
ATOM     27  C21 <0> d          47.108  47.861  46.187  0.00  0.00     0.038 A 
ATOM     28  C20 <0> d          48.324  48.212  45.630  0.00  0.00     0.012 A 
ATOM     29  C25 <0> d          47.069  44.125  45.590  0.00  0.00     0.205 C 
ATOM     30  O2  <0> d          45.879  44.001  44.809  0.00  0.00    -0.396 OA
ATOM     31  H34 <0> d          46.038  43.787  43.879  0.00  0.00     0.209 HD
ATOM     32  O3  <0> d          45.499  46.188  46.712  0.00  0.00    -0.360 OA
ATOM     33  H35 <0> d          45.475  46.238  47.677  0.00  0.00     0.217 HD
ATOM     34  O4  <0> d          50.876  48.886  44.991  0.00  0.00    -0.389 OA
ATOM     35  H36 <0> d          50.965  49.586  44.329  0.00  0.00     0.210 HD
ENDMDL
MODEL 7
REMARK VINA RESULT:      -7.5      2.002      4.133
ATOM      1  N1  <0> d          52.983  47.185  42.303  0.00  0.00    -0.072 N 
ATOM      2  H37 <0> d          53.057  48.094  42.774  0.00  0.00     0.277 HD
ATOM      3  H38 <0> d          53.922  46.848  42.062  0.00  0.00     0.277 HD
ATOM      4  C16 <0> d          52.190  47.341  41.068  0.00  0.00     0.232 C 
ATOM      5  C15 <0> d          52.194  48.812  40.651  0.00  0.00     0.027 C 
ATOM      6  C14 <0> d          50.766  49.361  40.702  0.00  0.00     0.002 C 
ATOM      7  C13 <0> d          49.799  48.320  40.133  0.00  0.00     0.002 C 
ATOM      8  C12 <0> d          48.930  48.967  39.055  0.00  0.00     0.026 C 
ATOM      9  C11 <0> d          48.978  50.489  39.206  0.00  0.00     0.167 C 
ATOM     10  O1  <0> d          49.438  51.074  37.987  0.00  0.00    -0.391 OA
ATOM     11  C10 <0> d          50.486  52.028  38.161  0.00  0.00     0.167 C 
ATOM     12  C9  <0> d          51.822  51.397  37.764  0.00  0.00     0.027 C 
ATOM     13  C8  <0> d          51.751  50.919  36.312  0.00  0.00     0.007 C 
ATOM     14  C7  <0> d          52.576  49.640  36.156  0.00  0.00     0.038 C 
ATOM     15  C4  <0> d          51.685  48.440  36.355  0.00  0.00    -0.058 A 
ATOM     16  C3  <0> d          50.505  48.331  35.646  0.00  0.00     0.007 A 
ATOM     17  C2  <0> d          49.687  47.230  35.828  0.00  0.00     0.001 A 
ATOM     18  C1  <0> d          50.053  46.239  36.720  0.00  0.00     0.000 A 
ATOM     19  C6  <0> d          51.235  46.348  37.429  0.00  0.00     0.001 A 
ATOM     20  C5  <0> d          52.053  47.447  37.243  0.00  0.00     0.007 A 
ATOM     21  C17 <0> d          52.335  46.218  43.209  0.00  0.00     0.268 C 
ATOM     22  C18 <0> d          52.018  46.911  44.536  0.00  0.00     0.176 C 
ATOM     23  C19 <0> d          50.525  47.048  44.686  0.00  0.00    -0.027 A 
ATOM     24  C24 <0> d          49.837  47.978  43.930  0.00  0.00     0.022 A 
ATOM     25  C23 <0> d          48.468  48.105  44.067  0.00  0.00    -0.001 A 
ATOM     26  C22 <0> d          47.785  47.303  44.969  0.00  0.00     0.074 A 
ATOM     27  C21 <0> d          48.476  46.367  45.725  0.00  0.00     0.038 A 
ATOM     28  C20 <0> d          49.846  46.243  45.583  0.00  0.00     0.012 A 
ATOM     29  C25 <0> d          47.718  49.119  43.241  0.00  0.00     0.205 C 
ATOM     30  O2  <0> d          47.137  50.099  44.104  0.00  0.00    -0.396 OA
ATOM     31  H34 <0> d          46.623  49.727  44.833  0.00  0.00     0.209 HD
ATOM     32  O3  <0> d          46.438  47.430  45.110  0.00  0.00    -0.360 OA
ATOM     33  H35 <0> d          45.997  46.626  45.415  0.00  0.00     0.217 HD
ATOM     34  O4  <0> d          52.536  46.133  45.615  0.00  0.00    -0.389 OA
ATOM     35  H36 <0> d          51.948  46.084  46.383  0.00  0.00     0.210 HD
ENDMDL
MODEL 8
REMARK VINA RESULT:      -7.5      2.697      5.340
ATOM      1  N1  <0> d          51.238  45.863  43.406  0.00  0.00    -0.072 N 
ATOM      2  H37 <0> d          51.581  45.146  44.055  0.00  0.00     0.277 HD
ATOM      3  H38 <0> d          50.655  45.422  42.686  0.00  0.00     0.277 HD
ATOM      4  C16 <0> d          52.388  46.527  42.762  0.00  0.00     0.232 C 
ATOM      5  C15 <0> d          52.002  46.932  41.338  0.00  0.00     0.027 C 
ATOM      6  C14 <0> d          52.042  48.457  41.214  0.00  0.00     0.002 C 
ATOM      7  C13 <0> d          51.966  48.850  39.737  0.00  0.00     0.002 C 
ATOM      8  C12 <0> d          51.844  50.370  39.619  0.00  0.00     0.026 C 
ATOM      9  C11 <0> d          52.530  50.839  38.335  0.00  0.00     0.167 C 
ATOM     10  O1  <0> d          51.925  52.052  37.887  0.00  0.00    -0.391 OA
ATOM     11  C10 <0> d          51.395  51.983  36.562  0.00  0.00     0.167 C 
ATOM     12  C9  <0> d          51.758  50.634  35.938  0.00  0.00     0.027 C 
ATOM     13  C8  <0> d          50.551  50.082  35.176  0.00  0.00     0.007 C 
ATOM     14  C7  <0> d          50.778  48.601  34.865  0.00  0.00     0.038 C 
ATOM     15  C4  <0> d          50.397  47.772  36.065  0.00  0.00    -0.058 A 
ATOM     16  C3  <0> d          51.294  46.859  36.586  0.00  0.00     0.007 A 
ATOM     17  C2  <0> d          50.946  46.097  37.686  0.00  0.00     0.001 A 
ATOM     18  C1  <0> d          49.700  46.250  38.265  0.00  0.00     0.000 A 
ATOM     19  C6  <0> d          48.803  47.164  37.744  0.00  0.00     0.001 A 
ATOM     20  C5  <0> d          49.153  47.927  36.646  0.00  0.00     0.007 A 
ATOM     21  C17 <0> d          50.431  46.848  44.151  0.00  0.00     0.268 C 
ATOM     22  C18 <0> d          49.020  46.887  43.559  0.00  0.00     0.176 C 
ATOM     23  C19 <0> d          48.835  48.168  42.787  0.00  0.00    -0.027 A 
ATOM     24  C24 <0> d          49.011  49.385  43.416  0.00  0.00     0.022 A 
ATOM     25  C23 <0> d          48.842  50.560  42.709  0.00  0.00    -0.001 A 
ATOM     26  C22 <0> d          48.488  50.517  41.369  0.00  0.00     0.074 A 
ATOM     27  C21 <0> d          48.315  49.294  40.737  0.00  0.00     0.038 A 
ATOM     28  C20 <0> d          48.486  48.121  41.449  0.00  0.00     0.012 A 
ATOM     29  C25 <0> d          49.036  51.889  43.395  0.00  0.00     0.205 C 
ATOM     30  O2  <0> d          47.780  52.565  43.486  0.00  0.00    -0.396 OA
ATOM     31  H34 <0> d          47.705  53.336  42.907  0.00  0.00     0.209 HD
ATOM     32  O3  <0> d          48.314  51.673  40.673  0.00  0.00    -0.360 OA
ATOM     33  H35 <0> d          48.033  51.542  39.757  0.00  0.00     0.217 HD
ATOM     34  O4  <0> d          48.838  45.773  42.685  0.00  0.00    -0.389 OA
ATOM     35  H36 <0> d          47.919  45.483  42.602  0.00  0.00     0.210 HD
ENDMDL
MODEL 9
REMARK VINA RESULT:      -7.5      3.010      9.401
ATOM      1  N1  <0> d          50.463  46.515  38.770  0.00  0.00    -0.072 N 
ATOM      2  H37 <0> d          50.329  45.506  38.897  0.00  0.00     0.277 HD
ATOM      3  H38 <0> d          51.327  46.681  38.240  0.00  0.00     0.277 HD
ATOM      4  C16 <0> d          50.573  47.161  40.092  0.00  0.00     0.232 C 
ATOM      5  C15 <0> d          51.974  46.919  40.656  0.00  0.00     0.027 C 
ATOM      6  C14 <0> d          51.862  46.286  42.044  0.00  0.00     0.002 C 
ATOM      7  C13 <0> d          52.768  47.038  43.022  0.00  0.00     0.002 C 
ATOM      8  C12 <0> d          51.958  47.451  44.252  0.00  0.00     0.026 C 
ATOM      9  C11 <0> d          51.048  48.627  43.893  0.00  0.00     0.167 C 
ATOM     10  O1  <0> d          50.993  49.539  44.989  0.00  0.00    -0.391 OA
ATOM     11  C10 <0> d          49.762  50.257  45.088  0.00  0.00     0.167 C 
ATOM     12  C9  <0> d          48.591  49.278  44.989  0.00  0.00     0.027 C 
ATOM     13  C8  <0> d          47.943  49.115  46.366  0.00  0.00     0.007 C 
ATOM     14  C7  <0> d          48.623  47.969  47.117  0.00  0.00     0.038 C 
ATOM     15  C4  <0> d          48.198  46.653  46.517  0.00  0.00    -0.058 A 
ATOM     16  C3  <0> d          49.151  45.737  46.115  0.00  0.00     0.007 A 
ATOM     17  C2  <0> d          48.762  44.529  45.564  0.00  0.00     0.001 A 
ATOM     18  C1  <0> d          47.418  44.239  45.417  0.00  0.00     0.000 A 
ATOM     19  C6  <0> d          46.465  45.156  45.820  0.00  0.00     0.001 A 
ATOM     20  C5  <0> d          46.854  46.361  46.374  0.00  0.00     0.007 A 
ATOM     21  C17 <0> d          49.318  47.069  38.023  0.00  0.00     0.268 C 
ATOM     22  C18 <0> d          49.645  47.061  36.528  0.00  0.00     0.176 C 
ATOM     23  C19 <0> d          50.014  48.454  36.087  0.00  0.00    -0.027 A 
ATOM     24  C24 <0> d          49.604  49.544  36.830  0.00  0.00     0.022 A 
ATOM     25  C23 <0> d          49.942  50.823  36.428  0.00  0.00    -0.001 A 
ATOM     26  C22 <0> d          50.687  51.010  35.274  0.00  0.00     0.074 A 
ATOM     27  C21 <0> d          51.102  49.915  34.531  0.00  0.00     0.038 A 
ATOM     28  C20 <0> d          50.762  48.638  34.938  0.00  0.00     0.012 A 
ATOM     29  C25 <0> d          49.495  52.012  37.239  0.00  0.00     0.205 C 
ATOM     30  O2  <0> d          48.889  52.976  36.376  0.00  0.00    -0.396 OA
ATOM     31  H34 <0> d          49.150  52.893  35.448  0.00  0.00     0.209 HD
ATOM     32  O3  <0> d          51.016  52.268  34.872  0.00  0.00    -0.360 OA
ATOM     33  H35 <0> d          51.952  52.381  34.659  0.00  0.00     0.217 HD
ATOM     34  O4  <0> d          50.741  46.179  36.285  0.00  0.00    -0.389 OA
ATOM     35  H36 <0> d          51.500  46.601  35.858  0.00  0.00     0.210 HD
ENDMDL
MODEL 10
REMARK VINA RESULT:      -7.5      2.294      3.288
ATOM      1  N1  <0> d          50.741  48.103  41.021  0.00  0.00    -0.072 N 
ATOM      2  H37 <0> d          50.346  47.223  41.371  0.00  0.00     0.277 HD
ATOM      3  H38 <0> d          50.054  48.571  40.418  0.00  0.00     0.277 HD
ATOM      4  C16 <0> d          51.958  47.812  40.238  0.00  0.00     0.232 C 
ATOM      5  C15 <0> d          51.604  47.790  38.750  0.00  0.00     0.027 C 
ATOM      6  C14 <0> d          50.136  48.184  38.568  0.00  0.00     0.002 C 
ATOM      7  C13 <0> d          49.611  47.601  37.255  0.00  0.00     0.002 C 
ATOM      8  C12 <0> d          50.776  47.402  36.284  0.00  0.00     0.026 C 
ATOM      9  C11 <0> d          50.433  48.042  34.937  0.00  0.00     0.167 C 
ATOM     10  O1  <0> d          51.572  48.745  34.440  0.00  0.00    -0.391 OA
ATOM     11  C10 <0> d          51.834  49.977  35.113  0.00  0.00     0.167 C 
ATOM     12  C9  <0> d          50.782  51.012  34.712  0.00  0.00     0.027 C 
ATOM     13  C8  <0> d          50.652  52.064  35.816  0.00  0.00     0.007 C 
ATOM     14  C7  <0> d          50.838  51.397  37.180  0.00  0.00     0.038 C 
ATOM     15  C4  <0> d          51.960  52.077  37.924  0.00  0.00    -0.058 A 
ATOM     16  C3  <0> d          52.259  53.400  37.661  0.00  0.00     0.007 A 
ATOM     17  C2  <0> d          53.287  54.026  38.343  0.00  0.00     0.001 A 
ATOM     18  C1  <0> d          54.015  53.326  39.287  0.00  0.00     0.000 A 
ATOM     19  C6  <0> d          53.715  52.002  39.549  0.00  0.00     0.001 A 
ATOM     20  C5  <0> d          52.684  51.379  38.871  0.00  0.00     0.007 A 
ATOM     21  C17 <0> d          51.065  48.979  42.162  0.00  0.00     0.268 C 
ATOM     22  C18 <0> d          49.771  49.351  42.891  0.00  0.00     0.176 C 
ATOM     23  C19 <0> d          49.685  48.584  44.185  0.00  0.00    -0.027 A 
ATOM     24  C24 <0> d          49.035  49.135  45.272  0.00  0.00     0.022 A 
ATOM     25  C23 <0> d          48.955  48.434  46.460  0.00  0.00    -0.001 A 
ATOM     26  C22 <0> d          49.534  47.178  46.562  0.00  0.00     0.074 A 
ATOM     27  C21 <0> d          50.183  46.623  45.468  0.00  0.00     0.038 A 
ATOM     28  C20 <0> d          50.259  47.329  44.282  0.00  0.00     0.012 A 
ATOM     29  C25 <0> d          48.245  49.035  47.646  0.00  0.00     0.205 C 
ATOM     30  O2  <0> d          49.052  50.072  48.208  0.00  0.00    -0.396 OA
ATOM     31  H34 <0> d          49.622  50.518  47.567  0.00  0.00     0.209 HD
ATOM     32  O3  <0> d          49.462  46.487  47.732  0.00  0.00    -0.360 OA
ATOM     33  H35 <0> d          50.154  45.820  47.838  0.00  0.00     0.217 HD
ATOM     34  O4  <0> d          49.765  50.752  43.166  0.00  0.00    -0.389 OA
ATOM     35  H36 <0> d          50.016  50.976  44.073  0.00  0.00     0.210 HD
ENDMDL
