MODEL 1
REMARK VINA RESULT:      -9.4      0.000      0.000
ATOM      1  C1  <0> d          50.524  48.179  39.602  0.00  0.00     0.021 C 
ATOM      2  C2  <0> d          51.187  48.831  40.814  0.00  0.00    -0.012 C 
ATOM      3  C3  <0> d          52.370  47.958  41.260  0.00  0.00     0.022 C 
ATOM      4  C4  <0> d          51.890  46.560  41.640  0.00  0.00     0.084 C 
ATOM      5  C5  <0> d          50.777  46.655  42.650  0.00  0.00     0.149 C 
ATOM      6  O1  <0> d          50.536  45.706  43.370  0.00  0.00    -0.293 OA
ATOM      7  C6  <0> d          50.020  47.828  42.775  0.00  0.00     0.058 C 
ATOM      8  C7  <0> d          50.190  48.885  41.944  0.00  0.00    -0.046 C 
ATOM      9  C8  <0> d          49.376  50.081  42.145  0.00  0.00     0.004 C 
ATOM     10  C9  <0> d          49.565  51.171  41.420  0.00  0.00    -0.021 C 
ATOM     11  C10 <0> d          50.645  51.302  40.384  0.00  0.00     0.018 C 
ATOM     12  C11 <0> d          51.709  50.226  40.494  0.00  0.00     0.006 C 
ATOM     13  C12 <0> d          52.696  50.209  39.338  0.00  0.00     0.007 C 
ATOM     14  C13 <0> d          52.089  50.421  37.950  0.00  0.00     0.013 C 
ATOM     15  C14 <0> d          51.177  51.623  37.966  0.00  0.00    -0.009 C 
ATOM     16  C15 <0> d          50.055  51.364  38.998  0.00  0.00     0.005 C 
ATOM     17  C16 <0> d          49.099  52.537  38.727  0.00  0.00     0.009 C 
ATOM     18  C17 <0> d          49.113  52.656  37.180  0.00  0.00     0.039 C 
ATOM     19  C18 <0> d          50.392  51.930  36.689  0.00  0.00     0.066 C 
ATOM     20  C22 <0> d          51.986  52.876  38.326  0.00  0.00     0.019 C 
ATOM     21  C19 <0> d          50.020  50.659  35.933  0.00  0.00     0.049 C 
ATOM     22  C20 <0> d          50.757  50.629  34.593  0.00  0.00     0.116 C 
ATOM     23  C21 <0> d          51.640  49.409  34.531  0.00  0.00     0.172 C 
ATOM     24  O2  <0> d          51.158  48.325  34.302  0.00  0.00    -0.648 OA
ATOM     25  O4  <0> d          52.962  49.526  34.730  0.00  0.00    -0.648 OA
ATOM     26  O3  <0> d          51.157  52.801  35.851  0.00  0.00    -0.389 OA
ATOM     27  H26 <0> d          50.913  52.763  34.917  0.00  0.00     0.210 HD
ENDMDL
MODEL 2
REMARK VINA RESULT:      -9.4      2.622      7.021
ATOM      1  C1  <0> d          49.722  48.423  39.201  0.00  0.00     0.021 C 
ATOM      2  C2  <0> d          51.085  47.871  38.787  0.00  0.00    -0.012 C 
ATOM      3  C3  <0> d          51.729  48.843  37.785  0.00  0.00     0.022 C 
ATOM      4  C4  <0> d          50.850  48.994  36.547  0.00  0.00     0.084 C 
ATOM      5  C5  <0> d          50.529  47.639  35.974  0.00  0.00     0.149 C 
ATOM      6  O1  <0> d          50.204  47.541  34.807  0.00  0.00    -0.293 OA
ATOM      7  C6  <0> d          50.609  46.487  36.769  0.00  0.00     0.058 C 
ATOM      8  C7  <0> d          50.885  46.546  38.095  0.00  0.00    -0.046 C 
ATOM      9  C8  <0> d          50.967  45.303  38.857  0.00  0.00     0.004 C 
ATOM     10  C9  <0> d          51.322  45.300  40.131  0.00  0.00    -0.021 C 
ATOM     11  C10 <0> d          51.719  46.537  40.885  0.00  0.00     0.018 C 
ATOM     12  C11 <0> d          52.022  47.716  39.978  0.00  0.00     0.006 C 
ATOM     13  C12 <0> d          52.221  49.030  40.715  0.00  0.00     0.007 C 
ATOM     14  C13 <0> d          51.250  49.295  41.868  0.00  0.00     0.013 C 
ATOM     15  C14 <0> d          51.180  48.085  42.768  0.00  0.00    -0.009 C 
ATOM     16  C15 <0> d          50.686  46.885  41.928  0.00  0.00     0.005 C 
ATOM     17  C16 <0> d          50.440  45.821  43.009  0.00  0.00     0.009 C 
ATOM     18  C17 <0> d          49.810  46.635  44.170  0.00  0.00     0.039 C 
ATOM     19  C18 <0> d          50.174  48.121  43.920  0.00  0.00     0.066 C 
ATOM     20  C22 <0> d          52.565  47.812  43.369  0.00  0.00     0.019 C 
ATOM     21  C19 <0> d          48.925  48.917  43.558  0.00  0.00     0.049 C 
ATOM     22  C20 <0> d          48.671  49.983  44.626  0.00  0.00     0.116 C 
ATOM     23  C21 <0> d          48.943  51.348  44.049  0.00  0.00     0.172 C 
ATOM     24  O2  <0> d          49.659  52.122  44.641  0.00  0.00    -0.648 OA
ATOM     25  O4  <0> d          48.393  51.705  42.879  0.00  0.00    -0.648 OA
ATOM     26  O3  <0> d          50.796  48.675  45.085  0.00  0.00    -0.389 OA
ATOM     27  H26 <0> d          50.171  49.014  45.740  0.00  0.00     0.210 HD
ENDMDL
MODEL 3
REMARK VINA RESULT:      -9.3      1.855      3.880
ATOM      1  C1  <0> d          51.931  48.697  41.080  0.00  0.00     0.021 C 
ATOM      2  C2  <0> d          50.802  47.692  41.303  0.00  0.00    -0.012 C 
ATOM      3  C3  <0> d          50.105  48.018  42.633  0.00  0.00     0.022 C 
ATOM      4  C4  <0> d          51.094  47.927  43.791  0.00  0.00     0.084 C 
ATOM      5  C5  <0> d          51.791  46.592  43.769  0.00  0.00     0.149 C 
ATOM      6  O1  <0> d          52.293  46.159  44.789  0.00  0.00    -0.293 OA
ATOM      7  C6  <0> d          51.861  45.839  42.590  0.00  0.00     0.058 C 
ATOM      8  C7  <0> d          51.393  46.309  41.408  0.00  0.00    -0.046 C 
ATOM      9  C8  <0> d          51.487  45.462  40.222  0.00  0.00     0.004 C 
ATOM     10  C9  <0> d          50.963  45.836  39.066  0.00  0.00    -0.021 C 
ATOM     11  C10 <0> d          50.194  47.112  38.879  0.00  0.00     0.018 C 
ATOM     12  C11 <0> d          49.765  47.747  40.188  0.00  0.00     0.006 C 
ATOM     13  C12 <0> d          49.170  49.138  40.037  0.00  0.00     0.007 C 
ATOM     14  C13 <0> d          49.882  50.056  39.042  0.00  0.00     0.013 C 
ATOM     15  C14 <0> d          50.095  49.329  37.736  0.00  0.00    -0.009 C 
ATOM     16  C15 <0> d          50.962  48.080  38.013  0.00  0.00     0.005 C 
ATOM     17  C16 <0> d          51.286  47.597  36.591  0.00  0.00     0.009 C 
ATOM     18  C17 <0> d          51.543  48.917  35.818  0.00  0.00     0.039 C 
ATOM     19  C18 <0> d          50.892  50.053  36.648  0.00  0.00     0.066 C 
ATOM     20  C22 <0> d          48.737  48.943  37.136  0.00  0.00     0.019 C 
ATOM     21  C19 <0> d          51.967  50.958  37.240  0.00  0.00     0.049 C 
ATOM     22  C20 <0> d          51.614  52.420  36.961  0.00  0.00     0.116 C 
ATOM     23  C21 <0> d          52.476  53.317  37.812  0.00  0.00     0.172 C 
ATOM     24  O2  <0> d          52.771  54.421  37.420  0.00  0.00    -0.648 OA
ATOM     25  O4  <0> d          52.915  52.890  39.006  0.00  0.00    -0.648 OA
ATOM     26  O3  <0> d          50.002  50.812  35.824  0.00  0.00    -0.389 OA
ATOM     27  H26 <0> d          49.068  50.593  35.948  0.00  0.00     0.210 HD
ENDMDL
MODEL 4
REMARK VINA RESULT:      -9.1      2.616      7.417
ATOM      1  C1  <0> d          49.719  48.406  39.217  0.00  0.00     0.021 C 
ATOM      2  C2  <0> d          51.077  47.866  38.771  0.00  0.00    -0.012 C 
ATOM      3  C3  <0> d          51.702  48.858  37.778  0.00  0.00     0.022 C 
ATOM      4  C4  <0> d          50.804  49.030  36.557  0.00  0.00     0.084 C 
ATOM      5  C5  <0> d          50.479  47.685  35.964  0.00  0.00     0.149 C 
ATOM      6  O1  <0> d          50.136  47.608  34.799  0.00  0.00    -0.293 OA
ATOM      7  C6  <0> d          50.573  46.519  36.735  0.00  0.00     0.058 C 
ATOM      8  C7  <0> d          50.869  46.554  38.057  0.00  0.00    -0.046 C 
ATOM      9  C8  <0> d          50.967  45.297  38.794  0.00  0.00     0.004 C 
ATOM     10  C9  <0> d          51.341  45.271  40.063  0.00  0.00    -0.021 C 
ATOM     11  C10 <0> d          51.746  46.495  40.833  0.00  0.00     0.018 C 
ATOM     12  C11 <0> d          52.032  47.691  39.945  0.00  0.00     0.006 C 
ATOM     13  C12 <0> d          52.239  48.991  40.704  0.00  0.00     0.007 C 
ATOM     14  C13 <0> d          51.285  49.232  41.875  0.00  0.00     0.013 C 
ATOM     15  C14 <0> d          51.232  48.005  42.753  0.00  0.00    -0.009 C 
ATOM     16  C15 <0> d          50.729  46.820  41.899  0.00  0.00     0.005 C 
ATOM     17  C16 <0> d          50.501  45.736  42.963  0.00  0.00     0.009 C 
ATOM     18  C17 <0> d          49.888  46.525  44.149  0.00  0.00     0.039 C 
ATOM     19  C18 <0> d          50.244  48.017  43.922  0.00  0.00     0.066 C 
ATOM     20  C22 <0> d          52.627  47.725  43.328  0.00  0.00     0.019 C 
ATOM     21  C19 <0> d          48.987  48.816  43.593  0.00  0.00     0.049 C 
ATOM     22  C20 <0> d          47.815  48.288  44.422  0.00  0.00     0.116 C 
ATOM     23  C21 <0> d          47.545  49.228  45.568  0.00  0.00     0.172 C 
ATOM     24  O2  <0> d          46.589  49.966  45.531  0.00  0.00    -0.648 OA
ATOM     25  O4  <0> d          48.364  49.245  46.630  0.00  0.00    -0.648 OA
ATOM     26  O3  <0> d          50.882  48.550  45.086  0.00  0.00    -0.389 OA
ATOM     27  H26 <0> d          51.540  49.233  44.896  0.00  0.00     0.210 HD
ENDMDL
MODEL 5
REMARK VINA RESULT:      -9.0      5.931      9.046
ATOM      1  C1  <0> d          44.551  49.751  44.934  0.00  0.00     0.021 C 
ATOM      2  C2  <0> d          44.223  51.133  44.372  0.00  0.00    -0.012 C 
ATOM      3  C3  <0> d          43.172  51.799  45.274  0.00  0.00     0.022 C 
ATOM      4  C4  <0> d          41.898  50.960  45.319  0.00  0.00     0.084 C 
ATOM      5  C5  <0> d          41.420  50.674  43.920  0.00  0.00     0.149 C 
ATOM      6  O1  <0> d          40.254  50.389  43.730  0.00  0.00    -0.293 OA
ATOM      7  C6  <0> d          42.302  50.740  42.833  0.00  0.00     0.058 C 
ATOM      8  C7  <0> d          43.628  50.971  42.995  0.00  0.00    -0.046 C 
ATOM      9  C8  <0> d          44.484  51.042  41.815  0.00  0.00     0.004 C 
ATOM     10  C9  <0> d          45.766  51.355  41.913  0.00  0.00    -0.021 C 
ATOM     11  C10 <0> d          46.436  51.712  43.209  0.00  0.00     0.018 C 
ATOM     12  C11 <0> d          45.453  52.031  44.320  0.00  0.00     0.006 C 
ATOM     13  C12 <0> d          46.094  52.191  45.688  0.00  0.00     0.007 C 
ATOM     14  C13 <0> d          47.191  51.179  46.026  0.00  0.00     0.013 C 
ATOM     15  C14 <0> d          48.178  51.092  44.886  0.00  0.00    -0.009 C 
ATOM     16  C15 <0> d          47.416  50.641  43.620  0.00  0.00     0.005 C 
ATOM     17  C16 <0> d          48.566  50.371  42.638  0.00  0.00     0.009 C 
ATOM     18  C17 <0> d          49.641  49.694  43.528  0.00  0.00     0.039 C 
ATOM     19  C18 <0> d          49.291  50.049  44.996  0.00  0.00     0.066 C 
ATOM     20  C22 <0> d          48.842  52.460  44.679  0.00  0.00     0.019 C 
ATOM     21  C19 <0> d          48.829  48.804  45.745  0.00  0.00     0.049 C 
ATOM     22  C20 <0> d          49.696  47.611  45.336  0.00  0.00     0.116 C 
ATOM     23  C21 <0> d          49.687  46.582  46.438  0.00  0.00     0.172 C 
ATOM     24  O2  <0> d          48.743  46.508  47.188  0.00  0.00    -0.648 OA
ATOM     25  O4  <0> d          50.727  45.748  46.585  0.00  0.00    -0.648 OA
ATOM     26  O3  <0> d          50.429  50.625  45.644  0.00  0.00    -0.389 OA
ATOM     27  H26 <0> d          50.735  51.450  45.242  0.00  0.00     0.210 HD
ENDMDL
MODEL 6
REMARK VINA RESULT:      -8.7      1.869      2.305
ATOM      1  C1  <0> d          51.181  47.212  40.493  0.00  0.00     0.021 C 
ATOM      2  C2  <0> d          50.865  48.278  41.541  0.00  0.00    -0.012 C 
ATOM      3  C3  <0> d          51.896  48.176  42.677  0.00  0.00     0.022 C 
ATOM      4  C4  <0> d          51.840  46.798  43.328  0.00  0.00     0.084 C 
ATOM      5  C5  <0> d          50.428  46.483  43.746  0.00  0.00     0.149 C 
ATOM      6  O1  <0> d          50.228  45.657  44.615  0.00  0.00    -0.293 OA
ATOM      7  C6  <0> d          49.341  47.136  43.150  0.00  0.00     0.058 C 
ATOM      8  C7  <0> d          49.500  48.003  42.120  0.00  0.00    -0.046 C 
ATOM      9  C8  <0> d          48.323  48.659  41.558  0.00  0.00     0.004 C 
ATOM     10  C9  <0> d          48.432  49.581  40.615  0.00  0.00    -0.021 C 
ATOM     11  C10 <0> d          49.749  50.068  40.082  0.00  0.00     0.018 C 
ATOM     12  C11 <0> d          50.926  49.684  40.958  0.00  0.00     0.006 C 
ATOM     13  C12 <0> d          52.283  49.982  40.341  0.00  0.00     0.007 C 
ATOM     14  C13 <0> d          52.415  49.659  38.851  0.00  0.00     0.013 C 
ATOM     15  C14 <0> d          51.248  50.245  38.094  0.00  0.00    -0.009 C 
ATOM     16  C15 <0> d          49.948  49.626  38.654  0.00  0.00     0.005 C 
ATOM     17  C16 <0> d          48.900  50.122  37.645  0.00  0.00     0.009 C 
ATOM     18  C17 <0> d          49.634  50.001  36.284  0.00  0.00     0.039 C 
ATOM     19  C18 <0> d          51.150  49.933  36.599  0.00  0.00     0.066 C 
ATOM     20  C22 <0> d          51.251  51.771  38.249  0.00  0.00     0.019 C 
ATOM     21  C19 <0> d          51.695  48.547  36.272  0.00  0.00     0.049 C 
ATOM     22  C20 <0> d          50.542  47.627  35.866  0.00  0.00     0.116 C 
ATOM     23  C21 <0> d          50.404  46.517  36.875  0.00  0.00     0.172 C 
ATOM     24  O2  <0> d          51.361  45.833  37.156  0.00  0.00    -0.648 OA
ATOM     25  O4  <0> d          49.221  46.288  37.464  0.00  0.00    -0.648 OA
ATOM     26  O3  <0> d          51.850  50.932  35.851  0.00  0.00    -0.389 OA
ATOM     27  H26 <0> d          52.691  51.200  36.246  0.00  0.00     0.210 HD
ENDMDL
MODEL 7
REMARK VINA RESULT:      -8.6      1.848      6.529
ATOM      1  C1  <0> d          51.353  48.607  39.164  0.00  0.00     0.021 C 
ATOM      2  C2  <0> d          50.451  49.204  38.084  0.00  0.00    -0.012 C 
ATOM      3  C3  <0> d          50.382  48.226  36.901  0.00  0.00     0.022 C 
ATOM      4  C4  <0> d          51.772  47.990  36.320  0.00  0.00     0.084 C 
ATOM      5  C5  <0> d          52.425  49.307  35.995  0.00  0.00     0.149 C 
ATOM      6  O1  <0> d          53.325  49.347  35.178  0.00  0.00    -0.293 OA
ATOM      7  C6  <0> d          52.004  50.489  36.618  0.00  0.00     0.058 C 
ATOM      8  C7  <0> d          51.064  50.492  37.595  0.00  0.00    -0.046 C 
ATOM      9  C8  <0> d          50.663  51.764  38.188  0.00  0.00     0.004 C 
ATOM     10  C9  <0> d          49.687  51.831  39.079  0.00  0.00    -0.021 C 
ATOM     11  C10 <0> d          48.881  50.642  39.515  0.00  0.00     0.018 C 
ATOM     12  C11 <0> d          49.036  49.445  38.595  0.00  0.00     0.006 C 
ATOM     13  C12 <0> d          48.401  48.170  39.123  0.00  0.00     0.007 C 
ATOM     14  C13 <0> d          48.597  47.904  40.617  0.00  0.00     0.013 C 
ATOM     15  C14 <0> d          48.249  49.142  41.409  0.00  0.00    -0.009 C 
ATOM     16  C15 <0> d          49.181  50.286  40.950  0.00  0.00     0.005 C 
ATOM     17  C16 <0> d          48.879  51.377  41.990  0.00  0.00     0.009 C 
ATOM     18  C17 <0> d          48.749  50.579  43.313  0.00  0.00     0.039 C 
ATOM     19  C18 <0> d          48.487  49.102  42.920  0.00  0.00     0.066 C 
ATOM     20  C22 <0> d          46.775  49.499  41.180  0.00  0.00     0.019 C 
ATOM     21  C19 <0> d          49.690  48.238  43.282  0.00  0.00     0.049 C 
ATOM     22  C20 <0> d          49.241  47.097  44.197  0.00  0.00     0.116 C 
ATOM     23  C21 <0> d          49.468  45.778  43.504  0.00  0.00     0.172 C 
ATOM     24  O2  <0> d          50.584  45.451  43.177  0.00  0.00    -0.648 OA
ATOM     25  O4  <0> d          48.430  44.965  43.251  0.00  0.00    -0.648 OA
ATOM     26  O3  <0> d          47.312  48.621  43.580  0.00  0.00    -0.389 OA
ATOM     27  H26 <0> d          46.613  48.332  42.977  0.00  0.00     0.210 HD
ENDMDL
MODEL 8
REMARK VINA RESULT:      -8.6     11.656     13.901
ATOM      1  C1  <0> d          38.218  53.460  45.545  0.00  0.00     0.021 C 
ATOM      2  C2  <0> d          39.127  53.002  46.684  0.00  0.00    -0.012 C 
ATOM      3  C3  <0> d          38.259  52.676  47.910  0.00  0.00     0.022 C 
ATOM      4  C4  <0> d          37.478  53.908  48.355  0.00  0.00     0.084 C 
ATOM      5  C5  <0> d          38.416  55.069  48.554  0.00  0.00     0.149 C 
ATOM      6  O1  <0> d          38.086  55.993  49.272  0.00  0.00    -0.293 OA
ATOM      7  C6  <0> d          39.669  55.093  47.927  0.00  0.00     0.058 C 
ATOM      8  C7  <0> d          40.055  54.132  47.052  0.00  0.00    -0.046 C 
ATOM      9  C8  <0> d          41.382  54.215  46.450  0.00  0.00     0.004 C 
ATOM     10  C9  <0> d          41.841  53.257  45.661  0.00  0.00    -0.021 C 
ATOM     11  C10 <0> d          41.082  51.996  45.361  0.00  0.00     0.018 C 
ATOM     12  C11 <0> d          39.923  51.757  46.311  0.00  0.00     0.006 C 
ATOM     13  C12 <0> d          39.016  50.607  45.906  0.00  0.00     0.007 C 
ATOM     14  C13 <0> d          38.697  50.511  44.413  0.00  0.00     0.013 C 
ATOM     15  C14 <0> d          39.971  50.607  43.609  0.00  0.00    -0.009 C 
ATOM     16  C15 <0> d          40.638  51.966  43.920  0.00  0.00     0.005 C 
ATOM     17  C16 <0> d          41.760  52.016  42.871  0.00  0.00     0.009 C 
ATOM     18  C17 <0> d          41.086  51.428  41.603  0.00  0.00     0.039 C 
ATOM     19  C18 <0> d          39.842  50.640  42.085  0.00  0.00     0.066 C 
ATOM     20  C22 <0> d          40.895  49.437  43.972  0.00  0.00     0.019 C 
ATOM     21  C19 <0> d          38.565  51.343  41.639  0.00  0.00     0.049 C 
ATOM     22  C20 <0> d          37.662  50.347  40.907  0.00  0.00     0.116 C 
ATOM     23  C21 <0> d          36.325  50.279  41.598  0.00  0.00     0.172 C 
ATOM     24  O2  <0> d          36.035  49.309  42.258  0.00  0.00    -0.648 OA
ATOM     25  O4  <0> d          35.456  51.295  41.482  0.00  0.00    -0.648 OA
ATOM     26  O3  <0> d          39.880  49.305  41.570  0.00  0.00    -0.389 OA
ATOM     27  H26 <0> d          40.712  49.075  41.134  0.00  0.00     0.210 HD
ENDMDL
MODEL 9
REMARK VINA RESULT:      -8.6      2.733      7.953
ATOM      1  C1  <0> d          48.841  47.643  40.740  0.00  0.00     0.021 C 
ATOM      2  C2  <0> d          49.769  48.843  40.562  0.00  0.00    -0.012 C 
ATOM      3  C3  <0> d          49.075  49.877  39.662  0.00  0.00     0.022 C 
ATOM      4  C4  <0> d          48.764  49.274  38.295  0.00  0.00     0.084 C 
ATOM      5  C5  <0> d          50.011  48.677  37.700  0.00  0.00     0.149 C 
ATOM      6  O1  <0> d          50.087  48.518  36.497  0.00  0.00    -0.293 OA
ATOM      7  C6  <0> d          51.090  48.309  38.516  0.00  0.00     0.058 C 
ATOM      8  C7  <0> d          51.028  48.387  39.868  0.00  0.00    -0.046 C 
ATOM      9  C8  <0> d          52.197  48.001  40.653  0.00  0.00     0.004 C 
ATOM     10  C9  <0> d          52.220  48.144  41.968  0.00  0.00    -0.021 C 
ATOM     11  C10 <0> d          51.096  48.753  42.756  0.00  0.00     0.018 C 
ATOM     12  C11 <0> d          50.103  49.507  41.892  0.00  0.00     0.006 C 
ATOM     13  C12 <0> d          48.852  49.953  42.630  0.00  0.00     0.007 C 
ATOM     14  C13 <0> d          48.261  48.933  43.605  0.00  0.00     0.013 C 
ATOM     15  C14 <0> d          49.348  48.390  44.501  0.00  0.00    -0.009 C 
ATOM     16  C15 <0> d          50.415  47.713  43.612  0.00  0.00     0.005 C 
ATOM     17  C16 <0> d          51.302  47.018  44.656  0.00  0.00     0.009 C 
ATOM     18  C17 <0> d          50.278  46.474  45.686  0.00  0.00     0.039 C 
ATOM     19  C18 <0> d          48.967  47.273  45.474  0.00  0.00     0.066 C 
ATOM     20  C22 <0> d          49.953  49.536  45.324  0.00  0.00     0.019 C 
ATOM     21  C19 <0> d          47.883  46.367  44.901  0.00  0.00     0.049 C 
ATOM     22  C20 <0> d          47.465  45.340  45.955  0.00  0.00     0.116 C 
ATOM     23  C21 <0> d          47.256  44.000  45.297  0.00  0.00     0.172 C 
ATOM     24  O2  <0> d          48.054  43.110  45.473  0.00  0.00    -0.648 OA
ATOM     25  O4  <0> d          46.184  43.795  44.518  0.00  0.00    -0.648 OA
ATOM     26  O3  <0> d          48.536  47.841  46.715  0.00  0.00    -0.389 OA
ATOM     27  H26 <0> d          49.252  48.214  47.247  0.00  0.00     0.210 HD
ENDMDL
MODEL 10
REMARK VINA RESULT:      -8.3      8.571     11.420
ATOM      1  C1  <0> d          41.655  53.173  45.709  0.00  0.00     0.021 C 
ATOM      2  C2  <0> d          40.578  52.316  45.046  0.00  0.00    -0.012 C 
ATOM      3  C3  <0> d          39.646  53.231  44.235  0.00  0.00     0.022 C 
ATOM      4  C4  <0> d          38.981  54.258  45.145  0.00  0.00     0.084 C 
ATOM      5  C5  <0> d          38.312  53.565  46.303  0.00  0.00     0.149 C 
ATOM      6  O1  <0> d          37.412  54.124  46.900  0.00  0.00    -0.293 OA
ATOM      7  C6  <0> d          38.709  52.280  46.696  0.00  0.00     0.058 C 
ATOM      8  C7  <0> d          39.759  51.645  46.121  0.00  0.00    -0.046 C 
ATOM      9  C8  <0> d          40.106  50.300  46.571  0.00  0.00     0.004 C 
ATOM     10  C9  <0> d          41.063  49.602  45.981  0.00  0.00    -0.021 C 
ATOM     11  C10 <0> d          41.830  50.092  44.786  0.00  0.00     0.018 C 
ATOM     12  C11 <0> d          41.176  51.279  44.104  0.00  0.00     0.006 C 
ATOM     13  C12 <0> d          42.032  51.923  43.026  0.00  0.00     0.007 C 
ATOM     14  C13 <0> d          43.517  52.069  43.361  0.00  0.00     0.013 C 
ATOM     15  C14 <0> d          44.058  50.758  43.879  0.00  0.00    -0.009 C 
ATOM     16  C15 <0> d          43.266  50.377  45.150  0.00  0.00     0.005 C 
ATOM     17  C16 <0> d          44.074  49.183  45.681  0.00  0.00     0.009 C 
ATOM     18  C17 <0> d          45.544  49.611  45.434  0.00  0.00     0.039 C 
ATOM     19  C18 <0> d          45.507  50.738  44.370  0.00  0.00     0.066 C 
ATOM     20  C22 <0> d          43.921  49.682  42.793  0.00  0.00     0.019 C 
ATOM     21  C19 <0> d          45.912  52.068  44.994  0.00  0.00     0.049 C 
ATOM     22  C20 <0> d          47.256  51.909  45.708  0.00  0.00     0.116 C 
ATOM     23  C21 <0> d          48.318  52.672  44.958  0.00  0.00     0.172 C 
ATOM     24  O2  <0> d          48.042  53.716  44.416  0.00  0.00    -0.648 OA
ATOM     25  O4  <0> d          49.569  52.193  44.894  0.00  0.00    -0.648 OA
ATOM     26  O3  <0> d          46.379  50.413  43.283  0.00  0.00    -0.389 OA
ATOM     27  H26 <0> d          46.039  49.720  42.700  0.00  0.00     0.210 HD
ENDMDL
MODEL 1
REMARK VINA RESULT:      -9.4      0.000      0.000
ATOM      1  C1  <0> d          50.538  48.197  39.641  0.00  0.00     0.021 C 
ATOM      2  C2  <0> d          51.204  48.859  40.846  0.00  0.00    -0.012 C 
ATOM      3  C3  <0> d          52.392  47.992  41.294  0.00  0.00     0.022 C 
ATOM      4  C4  <0> d          51.917  46.596  41.687  0.00  0.00     0.084 C 
ATOM      5  C5  <0> d          50.807  46.697  42.699  0.00  0.00     0.149 C 
ATOM      6  O1  <0> d          50.571  45.752  43.428  0.00  0.00    -0.293 OA
ATOM      7  C6  <0> d          50.048  47.868  42.819  0.00  0.00     0.058 C 
ATOM      8  C7  <0> d          50.211  48.920  41.981  0.00  0.00    -0.046 C 
ATOM      9  C8  <0> d          49.396  50.114  42.174  0.00  0.00     0.004 C 
ATOM     10  C9  <0> d          49.580  51.200  41.442  0.00  0.00    -0.021 C 
ATOM     11  C10 <0> d          50.655  51.325  40.401  0.00  0.00     0.018 C 
ATOM     12  C11 <0> d          51.722  50.253  40.514  0.00  0.00     0.006 C 
ATOM     13  C12 <0> d          52.705  50.230  39.354  0.00  0.00     0.007 C 
ATOM     14  C13 <0> d          52.093  50.430  37.967  0.00  0.00     0.013 C 
ATOM     15  C14 <0> d          51.177  51.631  37.979  0.00  0.00    -0.009 C 
ATOM     16  C15 <0> d          50.060  51.376  39.016  0.00  0.00     0.005 C 
ATOM     17  C16 <0> d          49.101  52.545  38.740  0.00  0.00     0.009 C 
ATOM     18  C17 <0> d          49.108  52.653  37.193  0.00  0.00     0.039 C 
ATOM     19  C18 <0> d          50.387  51.926  36.702  0.00  0.00     0.066 C 
ATOM     20  C22 <0> d          51.985  52.887  38.326  0.00  0.00     0.019 C 
ATOM     21  C19 <0> d          50.015  50.649  35.957  0.00  0.00     0.049 C 
ATOM     22  C20 <0> d          50.746  50.611  34.613  0.00  0.00     0.116 C 
ATOM     23  C21 <0> d          51.632  49.393  34.557  0.00  0.00     0.172 C 
ATOM     24  O2  <0> d          51.155  48.308  34.327  0.00  0.00    -0.648 OA
ATOM     25  O4  <0> d          52.953  49.517  34.763  0.00  0.00    -0.648 OA
ATOM     26  O3  <0> d          51.146  52.792  35.855  0.00  0.00    -0.389 OA
ATOM     27  H26 <0> d          51.050  52.603  34.911  0.00  0.00     0.210 HD
ENDMDL
MODEL 2
REMARK VINA RESULT:      -9.4      2.613      7.026
ATOM      1  C1  <0> d          49.720  48.426  39.200  0.00  0.00     0.021 C 
ATOM      2  C2  <0> d          51.083  47.876  38.782  0.00  0.00    -0.012 C 
ATOM      3  C3  <0> d          51.726  48.849  37.781  0.00  0.00     0.022 C 
ATOM      4  C4  <0> d          50.845  49.003  36.544  0.00  0.00     0.084 C 
ATOM      5  C5  <0> d          50.523  47.649  35.971  0.00  0.00     0.149 C 
ATOM      6  O1  <0> d          50.197  47.553  34.803  0.00  0.00    -0.293 OA
ATOM      7  C6  <0> d          50.604  46.496  36.763  0.00  0.00     0.058 C 
ATOM      8  C7  <0> d          50.882  46.551  38.088  0.00  0.00    -0.046 C 
ATOM      9  C8  <0> d          50.965  45.308  38.847  0.00  0.00     0.004 C 
ATOM     10  C9  <0> d          51.323  45.302  40.121  0.00  0.00    -0.021 C 
ATOM     11  C10 <0> d          51.720  46.537  40.876  0.00  0.00     0.018 C 
ATOM     12  C11 <0> d          52.021  47.717  39.972  0.00  0.00     0.006 C 
ATOM     13  C12 <0> d          52.222  49.030  40.712  0.00  0.00     0.007 C 
ATOM     14  C13 <0> d          51.253  49.293  41.866  0.00  0.00     0.013 C 
ATOM     15  C14 <0> d          51.184  48.081  42.764  0.00  0.00    -0.009 C 
ATOM     16  C15 <0> d          50.689  46.883  41.921  0.00  0.00     0.005 C 
ATOM     17  C16 <0> d          50.444  45.817  43.001  0.00  0.00     0.009 C 
ATOM     18  C17 <0> d          49.816  46.628  44.165  0.00  0.00     0.039 C 
ATOM     19  C18 <0> d          50.180  48.116  43.918  0.00  0.00     0.066 C 
ATOM     20  C22 <0> d          52.569  47.807  43.362  0.00  0.00     0.019 C 
ATOM     21  C19 <0> d          48.930  48.912  43.559  0.00  0.00     0.049 C 
ATOM     22  C20 <0> d          48.678  49.976  44.629  0.00  0.00     0.116 C 
ATOM     23  C21 <0> d          48.947  51.342  44.053  0.00  0.00     0.172 C 
ATOM     24  O2  <0> d          49.662  52.117  44.642  0.00  0.00    -0.648 OA
ATOM     25  O4  <0> d          48.392  51.697  42.883  0.00  0.00    -0.648 OA
ATOM     26  O3  <0> d          50.802  48.666  45.082  0.00  0.00    -0.389 OA
ATOM     27  H26 <0> d          51.101  48.002  45.719  0.00  0.00     0.210 HD
ENDMDL
MODEL 3
REMARK VINA RESULT:      -9.4      1.858      3.893
ATOM      1  C1  <0> d          51.928  48.682  41.090  0.00  0.00     0.021 C 
ATOM      2  C2  <0> d          50.803  47.670  41.305  0.00  0.00    -0.012 C 
ATOM      3  C3  <0> d          50.096  47.990  42.631  0.00  0.00     0.022 C 
ATOM      4  C4  <0> d          51.079  47.902  43.796  0.00  0.00     0.084 C 
ATOM      5  C5  <0> d          51.783  46.572  43.774  0.00  0.00     0.149 C 
ATOM      6  O1  <0> d          52.281  46.139  44.796  0.00  0.00    -0.293 OA
ATOM      7  C6  <0> d          51.864  45.821  42.594  0.00  0.00     0.058 C 
ATOM      8  C7  <0> d          51.401  46.289  41.410  0.00  0.00    -0.046 C 
ATOM      9  C8  <0> d          51.505  45.446  40.225  0.00  0.00     0.004 C 
ATOM     10  C9  <0> d          50.986  45.819  39.066  0.00  0.00    -0.021 C 
ATOM     11  C10 <0> d          50.212  47.091  38.876  0.00  0.00     0.018 C 
ATOM     12  C11 <0> d          49.772  47.722  40.183  0.00  0.00     0.006 C 
ATOM     13  C12 <0> d          49.170  49.109  40.032  0.00  0.00     0.007 C 
ATOM     14  C13 <0> d          49.883  50.033  39.042  0.00  0.00     0.013 C 
ATOM     15  C14 <0> d          50.107  49.309  37.736  0.00  0.00    -0.009 C 
ATOM     16  C15 <0> d          50.979  48.064  38.017  0.00  0.00     0.005 C 
ATOM     17  C16 <0> d          51.313  47.586  36.595  0.00  0.00     0.009 C 
ATOM     18  C17 <0> d          51.568  48.908  35.826  0.00  0.00     0.039 C 
ATOM     19  C18 <0> d          50.906  50.040  36.654  0.00  0.00     0.066 C 
ATOM     20  C22 <0> d          48.754  48.917  37.128  0.00  0.00     0.019 C 
ATOM     21  C19 <0> d          51.973  50.949  37.254  0.00  0.00     0.049 C 
ATOM     22  C20 <0> d          51.606  52.411  36.988  0.00  0.00     0.116 C 
ATOM     23  C21 <0> d          52.483  53.308  37.824  0.00  0.00     0.172 C 
ATOM     24  O2  <0> d          52.780  54.407  37.422  0.00  0.00    -0.648 OA
ATOM     25  O4  <0> d          52.932  52.884  39.016  0.00  0.00    -0.648 OA
ATOM     26  O3  <0> d          50.017  50.795  35.826  0.00  0.00    -0.389 OA
ATOM     27  H26 <0> d          49.842  50.390  34.965  0.00  0.00     0.210 HD
ENDMDL
MODEL 4
REMARK VINA RESULT:      -9.2      2.725      6.767
ATOM      1  C1  <0> d          50.135  50.282  37.936  0.00  0.00     0.021 C 
ATOM      2  C2  <0> d          51.160  49.197  37.611  0.00  0.00    -0.012 C 
ATOM      3  C3  <0> d          52.287  49.814  36.768  0.00  0.00     0.022 C 
ATOM      4  C4  <0> d          51.729  50.385  35.467  0.00  0.00     0.084 C 
ATOM      5  C5  <0> d          50.924  49.335  34.749  0.00  0.00     0.149 C 
ATOM      6  O1  <0> d          50.742  49.433  33.550  0.00  0.00    -0.293 OA
ATOM      7  C6  <0> d          50.389  48.241  35.442  0.00  0.00     0.058 C 
ATOM      8  C7  <0> d          50.490  48.123  36.788  0.00  0.00    -0.046 C 
ATOM      9  C8  <0> d          49.923  46.949  37.441  0.00  0.00     0.004 C 
ATOM     10  C9  <0> d          50.074  46.743  38.740  0.00  0.00    -0.021 C 
ATOM     11  C10 <0> d          50.871  47.646  39.635  0.00  0.00     0.018 C 
ATOM     12  C11 <0> d          51.772  48.598  38.872  0.00  0.00     0.006 C 
ATOM     13  C12 <0> d          52.431  49.659  39.739  0.00  0.00     0.007 C 
ATOM     14  C13 <0> d          51.534  50.288  40.807  0.00  0.00     0.013 C 
ATOM     15  C14 <0> d          50.827  49.205  41.586  0.00  0.00    -0.009 C 
ATOM     16  C15 <0> d          49.971  48.380  40.597  0.00  0.00     0.005 C 
ATOM     17  C16 <0> d          49.147  47.500  41.551  0.00  0.00     0.009 C 
ATOM     18  C17 <0> d          48.794  48.468  42.711  0.00  0.00     0.039 C 
ATOM     19  C18 <0> d          49.800  49.645  42.631  0.00  0.00     0.066 C 
ATOM     20  C22 <0> d          51.863  48.324  42.294  0.00  0.00     0.019 C 
ATOM     21  C19 <0> d          49.083  50.925  42.218  0.00  0.00     0.049 C 
ATOM     22  C20 <0> d          48.061  51.306  43.291  0.00  0.00     0.116 C 
ATOM     23  C21 <0> d          48.508  52.566  43.987  0.00  0.00     0.172 C 
ATOM     24  O2  <0> d          47.716  53.451  44.204  0.00  0.00    -0.648 OA
ATOM     25  O4  <0> d          49.789  52.702  44.366  0.00  0.00    -0.648 OA
ATOM     26  O3  <0> d          50.445  49.822  43.895  0.00  0.00    -0.389 OA
ATOM     27  H26 <0> d          49.950  49.461  44.644  0.00  0.00     0.210 HD
ENDMDL
MODEL 5
REMARK VINA RESULT:      -9.1      2.567      7.453
ATOM      1  C1  <0> d          49.688  48.378  39.262  0.00  0.00     0.021 C 
ATOM      2  C2  <0> d          51.079  47.901  38.847  0.00  0.00    -0.012 C 
ATOM      3  C3  <0> d          51.701  48.943  37.905  0.00  0.00     0.022 C 
ATOM      4  C4  <0> d          50.838  49.119  36.658  0.00  0.00     0.084 C 
ATOM      5  C5  <0> d          50.582  47.780  36.018  0.00  0.00     0.149 C 
ATOM      6  O1  <0> d          50.282  47.725  34.841  0.00  0.00    -0.293 OA
ATOM      7  C6  <0> d          50.695  46.597  36.759  0.00  0.00     0.058 C 
ATOM      8  C7  <0> d          50.945  46.602  38.090  0.00  0.00    -0.046 C 
ATOM      9  C8  <0> d          51.064  45.330  38.795  0.00  0.00     0.004 C 
ATOM     10  C9  <0> d          51.398  45.280  40.074  0.00  0.00    -0.021 C 
ATOM     11  C10 <0> d          51.730  46.494  40.892  0.00  0.00     0.018 C 
ATOM     12  C11 <0> d          52.001  47.725  40.049  0.00  0.00     0.006 C 
ATOM     13  C12 <0> d          52.135  49.010  40.851  0.00  0.00     0.007 C 
ATOM     14  C13 <0> d          51.134  49.181  41.995  0.00  0.00     0.013 C 
ATOM     15  C14 <0> d          51.098  47.928  42.836  0.00  0.00    -0.009 C 
ATOM     16  C15 <0> d          50.667  46.751  41.931  0.00  0.00     0.005 C 
ATOM     17  C16 <0> d          50.445  45.628  42.956  0.00  0.00     0.009 C 
ATOM     18  C17 <0> d          49.763  46.360  44.142  0.00  0.00     0.039 C 
ATOM     19  C18 <0> d          50.071  47.870  43.969  0.00  0.00     0.066 C 
ATOM     20  C22 <0> d          52.481  47.682  43.450  0.00  0.00     0.019 C 
ATOM     21  C19 <0> d          48.798  48.632  43.621  0.00  0.00     0.049 C 
ATOM     22  C20 <0> d          48.179  49.205  44.898  0.00  0.00     0.116 C 
ATOM     23  C21 <0> d          47.031  48.331  45.335  0.00  0.00     0.172 C 
ATOM     24  O2  <0> d          46.194  47.989  44.536  0.00  0.00    -0.648 OA
ATOM     25  O4  <0> d          46.941  47.934  46.615  0.00  0.00    -0.648 OA
ATOM     26  O3  <0> d          50.649  48.391  45.169  0.00  0.00    -0.389 OA
ATOM     27  H26 <0> d          51.616  48.423  45.159  0.00  0.00     0.210 HD
ENDMDL
MODEL 6
REMARK VINA RESULT:      -9.1      2.729      6.789
ATOM      1  C1  <0> d          51.508  51.774  40.471  0.00  0.00     0.021 C 
ATOM      2  C2  <0> d          52.235  51.249  39.234  0.00  0.00    -0.012 C 
ATOM      3  C3  <0> d          53.741  51.507  39.397  0.00  0.00     0.022 C 
ATOM      4  C4  <0> d          54.015  53.002  39.544  0.00  0.00     0.084 C 
ATOM      5  C5  <0> d          53.378  53.755  38.406  0.00  0.00     0.149 C 
ATOM      6  O1  <0> d          53.795  54.857  38.107  0.00  0.00    -0.293 OA
ATOM      7  C6  <0> d          52.315  53.198  37.683  0.00  0.00     0.058 C 
ATOM      8  C7  <0> d          51.755  52.012  38.024  0.00  0.00    -0.046 C 
ATOM      9  C8  <0> d          50.661  51.486  37.215  0.00  0.00     0.004 C 
ATOM     10  C9  <0> d          50.142  50.292  37.451  0.00  0.00    -0.021 C 
ATOM     11  C10 <0> d          50.652  49.363  38.514  0.00  0.00     0.018 C 
ATOM     12  C11 <0> d          52.020  49.753  39.042  0.00  0.00     0.006 C 
ATOM     13  C12 <0> d          52.468  48.956  40.256  0.00  0.00     0.007 C 
ATOM     14  C13 <0> d          51.388  48.694  41.308  0.00  0.00     0.013 C 
ATOM     15  C14 <0> d          50.143  48.159  40.642  0.00  0.00    -0.009 C 
ATOM     16  C15 <0> d          49.646  49.215  39.628  0.00  0.00     0.005 C 
ATOM     17  C16 <0> d          48.277  48.646  39.225  0.00  0.00     0.009 C 
ATOM     18  C17 <0> d          47.706  48.110  40.564  0.00  0.00     0.039 C 
ATOM     19  C18 <0> d          48.912  47.938  41.524  0.00  0.00     0.066 C 
ATOM     20  C22 <0> d          50.463  46.829  39.950  0.00  0.00     0.019 C 
ATOM     21  C19 <0> d          48.834  48.957  42.656  0.00  0.00     0.049 C 
ATOM     22  C20 <0> d          48.709  48.225  43.994  0.00  0.00     0.116 C 
ATOM     23  C21 <0> d          49.716  48.782  44.967  0.00  0.00     0.172 C 
ATOM     24  O2  <0> d          50.534  49.589  44.595  0.00  0.00    -0.648 OA
ATOM     25  O4  <0> d          49.702  48.381  46.248  0.00  0.00    -0.648 OA
ATOM     26  O3  <0> d          48.930  46.609  42.052  0.00  0.00    -0.389 OA
ATOM     27  H26 <0> d          48.133  46.097  41.857  0.00  0.00     0.210 HD
ENDMDL
MODEL 7
REMARK VINA RESULT:      -9.0      5.923      9.080
ATOM      1  C1  <0> d          44.478  49.994  44.965  0.00  0.00     0.021 C 
ATOM      2  C2  <0> d          44.200  51.355  44.329  0.00  0.00    -0.012 C 
ATOM      3  C3  <0> d          43.180  52.110  45.197  0.00  0.00     0.022 C 
ATOM      4  C4  <0> d          41.875  51.323  45.293  0.00  0.00     0.084 C 
ATOM      5  C5  <0> d          41.380  50.980  43.913  0.00  0.00     0.149 C 
ATOM      6  O1  <0> d          40.202  50.730  43.742  0.00  0.00    -0.293 OA
ATOM      7  C6  <0> d          42.257  50.953  42.821  0.00  0.00     0.058 C 
ATOM      8  C7  <0> d          43.591  51.142  42.965  0.00  0.00    -0.046 C 
ATOM      9  C8  <0> d          44.442  51.115  41.781  0.00  0.00     0.004 C 
ATOM     10  C9  <0> d          45.736  51.384  41.856  0.00  0.00    -0.021 C 
ATOM     11  C10 <0> d          46.426  51.785  43.127  0.00  0.00     0.018 C 
ATOM     12  C11 <0> d          45.463  52.201  44.223  0.00  0.00     0.006 C 
ATOM     13  C12 <0> d          46.118  52.412  45.579  0.00  0.00     0.007 C 
ATOM     14  C13 <0> d          47.177  51.378  45.967  0.00  0.00     0.013 C 
ATOM     15  C14 <0> d          48.153  51.193  44.830  0.00  0.00    -0.009 C 
ATOM     16  C15 <0> d          47.367  50.702  43.593  0.00  0.00     0.005 C 
ATOM     17  C16 <0> d          48.501  50.335  42.623  0.00  0.00     0.009 C 
ATOM     18  C17 <0> d          49.554  49.666  43.545  0.00  0.00     0.039 C 
ATOM     19  C18 <0> d          49.227  50.114  44.993  0.00  0.00     0.066 C 
ATOM     20  C22 <0> d          48.868  52.519  44.547  0.00  0.00     0.019 C 
ATOM     21  C19 <0> d          48.722  48.930  45.811  0.00  0.00     0.049 C 
ATOM     22  C20 <0> d          49.413  47.650  45.336  0.00  0.00     0.116 C 
ATOM     23  C21 <0> d          49.589  46.712  46.502  0.00  0.00     0.172 C 
ATOM     24  O2  <0> d          48.823  46.758  47.435  0.00  0.00    -0.648 OA
ATOM     25  O4  <0> d          50.596  45.825  46.502  0.00  0.00    -0.648 OA
ATOM     26  O3  <0> d          50.389  50.680  45.604  0.00  0.00    -0.389 OA
ATOM     27  H26 <0> d          50.476  51.635  45.474  0.00  0.00     0.210 HD
ENDMDL
MODEL 8
REMARK VINA RESULT:      -8.8      2.159      4.115
ATOM      1  C1  <0> d          50.053  50.040  41.166  0.00  0.00     0.021 C 
ATOM      2  C2  <0> d          49.856  48.717  41.904  0.00  0.00    -0.012 C 
ATOM      3  C3  <0> d          48.660  48.855  42.859  0.00  0.00     0.022 C 
ATOM      4  C4  <0> d          48.914  49.964  43.877  0.00  0.00     0.084 C 
ATOM      5  C5  <0> d          50.233  49.737  44.565  0.00  0.00     0.149 C 
ATOM      6  O1  <0> d          50.438  50.241  45.653  0.00  0.00    -0.293 OA
ATOM      7  C6  <0> d          51.226  48.946  43.973  0.00  0.00     0.058 C 
ATOM      8  C7  <0> d          51.087  48.429  42.728  0.00  0.00    -0.046 C 
ATOM      9  C8  <0> d          52.155  47.601  42.180  0.00  0.00     0.004 C 
ATOM     10  C9  <0> d          52.029  46.999  41.009  0.00  0.00    -0.021 C 
ATOM     11  C10 <0> d          50.783  47.063  40.174  0.00  0.00     0.018 C 
ATOM     12  C11 <0> d          49.576  47.567  40.943  0.00  0.00     0.006 C 
ATOM     13  C12 <0> d          48.357  47.838  40.076  0.00  0.00     0.007 C 
ATOM     14  C13 <0> d          48.639  48.522  38.737  0.00  0.00     0.013 C 
ATOM     15  C14 <0> d          49.759  47.806  38.022  0.00  0.00    -0.009 C 
ATOM     16  C15 <0> d          51.018  47.863  38.918  0.00  0.00     0.005 C 
ATOM     17  C16 <0> d          52.103  47.324  37.972  0.00  0.00     0.009 C 
ATOM     18  C17 <0> d          51.740  47.970  36.610  0.00  0.00     0.039 C 
ATOM     19  C18 <0> d          50.257  48.413  36.708  0.00  0.00     0.066 C 
ATOM     20  C22 <0> d          49.342  46.358  37.737  0.00  0.00     0.019 C 
ATOM     21  C19 <0> d          50.159  49.934  36.712  0.00  0.00     0.049 C 
ATOM     22  C20 <0> d          51.508  50.533  36.310  0.00  0.00     0.116 C 
ATOM     23  C21 <0> d          51.304  51.944  35.818  0.00  0.00     0.172 C 
ATOM     24  O2  <0> d          51.736  52.874  36.455  0.00  0.00    -0.648 OA
ATOM     25  O4  <0> d          50.642  52.163  34.671  0.00  0.00    -0.648 OA
ATOM     26  O3  <0> d          49.512  47.870  35.614  0.00  0.00    -0.389 OA
ATOM     27  H26 <0> d          49.819  47.000  35.322  0.00  0.00     0.210 HD
ENDMDL
MODEL 9
REMARK VINA RESULT:      -8.8      2.058      4.035
ATOM      1  C1  <0> d          51.910  48.599  39.934  0.00  0.00     0.021 C 
ATOM      2  C2  <0> d          50.626  47.801  39.711  0.00  0.00    -0.012 C 
ATOM      3  C3  <0> d          49.933  47.588  41.066  0.00  0.00     0.022 C 
ATOM      4  C4  <0> d          50.844  46.816  42.017  0.00  0.00     0.084 C 
ATOM      5  C5  <0> d          51.319  45.549  41.358  0.00  0.00     0.149 C 
ATOM      6  O1  <0> d          51.701  44.621  42.046  0.00  0.00    -0.293 OA
ATOM      7  C6  <0> d          51.318  45.421  39.963  0.00  0.00     0.058 C 
ATOM      8  C7  <0> d          50.983  46.448  39.147  0.00  0.00    -0.046 C 
ATOM      9  C8  <0> d          50.990  46.238  37.703  0.00  0.00     0.004 C 
ATOM     10  C9  <0> d          50.583  47.179  36.867  0.00  0.00    -0.021 C 
ATOM     11  C10 <0> d          50.037  48.505  37.315  0.00  0.00     0.018 C 
ATOM     12  C11 <0> d          49.660  48.529  38.784  0.00  0.00     0.006 C 
ATOM     13  C12 <0> d          49.302  49.909  39.311  0.00  0.00     0.007 C 
ATOM     14  C13 <0> d          50.193  51.053  38.823  0.00  0.00     0.013 C 
ATOM     15  C14 <0> d          50.343  50.983  37.323  0.00  0.00    -0.009 C 
ATOM     16  C15 <0> d          50.986  49.623  36.964  0.00  0.00     0.005 C 
ATOM     17  C16 <0> d          51.289  49.802  35.468  0.00  0.00     0.009 C 
ATOM     18  C17 <0> d          51.787  51.268  35.379  0.00  0.00     0.039 C 
ATOM     19  C18 <0> d          51.291  51.986  36.662  0.00  0.00     0.066 C 
ATOM     20  C22 <0> d          48.967  51.140  36.663  0.00  0.00     0.019 C 
ATOM     21  C19 <0> d          52.471  52.330  37.564  0.00  0.00     0.049 C 
ATOM     22  C20 <0> d          52.551  53.848  37.742  0.00  0.00     0.116 C 
ATOM     23  C21 <0> d          53.692  54.185  38.668  0.00  0.00     0.172 C 
ATOM     24  O2  <0> d          54.146  53.338  39.400  0.00  0.00    -0.648 OA
ATOM     25  O4  <0> d          54.201  55.426  38.679  0.00  0.00    -0.648 OA
ATOM     26  O3  <0> d          50.571  53.170  36.311  0.00  0.00    -0.389 OA
ATOM     27  H26 <0> d          50.426  53.776  37.052  0.00  0.00     0.210 HD
ENDMDL
MODEL 10
REMARK VINA RESULT:      -8.7      2.660      7.687
ATOM      1  C1  <0> d          48.803  47.716  40.729  0.00  0.00     0.021 C 
ATOM      2  C2  <0> d          49.854  48.770  40.382  0.00  0.00    -0.012 C 
ATOM      3  C3  <0> d          49.199  49.858  39.517  0.00  0.00     0.022 C 
ATOM      4  C4  <0> d          48.649  49.255  38.227  0.00  0.00     0.084 C 
ATOM      5  C5  <0> d          49.726  48.471  37.526  0.00  0.00     0.149 C 
ATOM      6  O1  <0> d          49.634  48.261  36.331  0.00  0.00    -0.293 OA
ATOM      7  C6  <0> d          50.836  47.988  38.230  0.00  0.00     0.058 C 
ATOM      8  C7  <0> d          50.950  48.120  39.573  0.00  0.00    -0.046 C 
ATOM      9  C8  <0> d          52.142  47.606  40.238  0.00  0.00     0.004 C 
ATOM     10  C9  <0> d          52.343  47.791  41.533  0.00  0.00    -0.021 C 
ATOM     11  C10 <0> d          51.413  48.575  42.412  0.00  0.00     0.018 C 
ATOM     12  C11 <0> d          50.431  49.428  41.630  0.00  0.00     0.006 C 
ATOM     13  C12 <0> d          49.348  50.069  42.484  0.00  0.00     0.007 C 
ATOM     14  C13 <0> d          48.749  49.174  43.571  0.00  0.00     0.013 C 
ATOM     15  C14 <0> d          49.856  48.520  44.363  0.00  0.00    -0.009 C 
ATOM     16  C15 <0> d          50.709  47.672  43.392  0.00  0.00     0.005 C 
ATOM     17  C16 <0> d          51.615  46.898  44.363  0.00  0.00     0.009 C 
ATOM     18  C17 <0> d          50.660  46.536  45.530  0.00  0.00     0.039 C 
ATOM     19  C18 <0> d          49.450  47.501  45.430  0.00  0.00     0.066 C 
ATOM     20  C22 <0> d          50.701  49.599  45.050  0.00  0.00     0.019 C 
ATOM     21  C19 <0> d          48.194  46.733  45.032  0.00  0.00     0.049 C 
ATOM     22  C20 <0> d          48.143  45.407  45.794  0.00  0.00     0.116 C 
ATOM     23  C21 <0> d          47.984  44.271  44.816  0.00  0.00     0.172 C 
ATOM     24  O2  <0> d          47.845  43.141  45.220  0.00  0.00    -0.648 OA
ATOM     25  O4  <0> d          47.996  44.517  43.497  0.00  0.00    -0.648 OA
ATOM     26  O3  <0> d          49.250  48.165  46.680  0.00  0.00    -0.389 OA
ATOM     27  H26 <0> d          49.646  47.709  47.436  0.00  0.00     0.210 HD
ENDMDL
MODEL 1
REMARK VINA RESULT:      -9.4      0.000      0.000
ATOM      1  C1  <0> d          50.527  48.180  39.622  0.00  0.00     0.021 C 
ATOM      2  C2  <0> d          51.188  48.834  40.833  0.00  0.00    -0.012 C 
ATOM      3  C3  <0> d          52.374  47.964  41.283  0.00  0.00     0.022 C 
ATOM      4  C4  <0> d          51.895  46.566  41.665  0.00  0.00     0.084 C 
ATOM      5  C5  <0> d          50.781  46.662  42.674  0.00  0.00     0.149 C 
ATOM      6  O1  <0> d          50.541  45.714  43.396  0.00  0.00    -0.293 OA
ATOM      7  C6  <0> d          50.022  47.834  42.796  0.00  0.00     0.058 C 
ATOM      8  C7  <0> d          50.190  48.890  41.964  0.00  0.00    -0.046 C 
ATOM      9  C8  <0> d          49.376  50.084  42.160  0.00  0.00     0.004 C 
ATOM     10  C9  <0> d          49.563  51.174  41.433  0.00  0.00    -0.021 C 
ATOM     11  C10 <0> d          50.643  51.303  40.398  0.00  0.00     0.018 C 
ATOM     12  C11 <0> d          51.709  50.229  40.512  0.00  0.00     0.006 C 
ATOM     13  C12 <0> d          52.697  50.211  39.355  0.00  0.00     0.007 C 
ATOM     14  C13 <0> d          52.092  50.419  37.966  0.00  0.00     0.013 C 
ATOM     15  C14 <0> d          51.177  51.620  37.980  0.00  0.00    -0.009 C 
ATOM     16  C15 <0> d          50.055  51.362  39.011  0.00  0.00     0.005 C 
ATOM     17  C16 <0> d          49.098  52.532  38.737  0.00  0.00     0.009 C 
ATOM     18  C17 <0> d          49.112  52.648  37.190  0.00  0.00     0.039 C 
ATOM     19  C18 <0> d          50.393  51.923  36.701  0.00  0.00     0.066 C 
ATOM     20  C22 <0> d          51.984  52.874  38.337  0.00  0.00     0.019 C 
ATOM     21  C19 <0> d          50.023  50.650  35.947  0.00  0.00     0.049 C 
ATOM     22  C20 <0> d          50.742  50.628  34.598  0.00  0.00     0.116 C 
ATOM     23  C21 <0> d          51.634  49.416  34.523  0.00  0.00     0.172 C 
ATOM     24  O2  <0> d          51.166  48.337  34.249  0.00  0.00    -0.648 OA
ATOM     25  O4  <0> d          52.950  49.537  34.760  0.00  0.00    -0.648 OA
ATOM     26  O3  <0> d          51.157  52.793  35.861  0.00  0.00    -0.389 OA
ATOM     27  H26 <0> d          51.755  52.331  35.258  0.00  0.00     0.210 HD
ENDMDL
MODEL 2
REMARK VINA RESULT:      -9.4      2.594      7.027
ATOM      1  C1  <0> d          49.718  48.455  39.184  0.00  0.00     0.021 C 
ATOM      2  C2  <0> d          51.078  47.902  38.762  0.00  0.00    -0.012 C 
ATOM      3  C3  <0> d          51.723  48.880  37.766  0.00  0.00     0.022 C 
ATOM      4  C4  <0> d          50.841  49.043  36.530  0.00  0.00     0.084 C 
ATOM      5  C5  <0> d          50.515  47.694  35.949  0.00  0.00     0.149 C 
ATOM      6  O1  <0> d          50.188  47.605  34.782  0.00  0.00    -0.293 OA
ATOM      7  C6  <0> d          50.593  46.536  36.735  0.00  0.00     0.058 C 
ATOM      8  C7  <0> d          50.872  46.583  38.060  0.00  0.00    -0.046 C 
ATOM      9  C8  <0> d          50.953  45.336  38.813  0.00  0.00     0.004 C 
ATOM     10  C9  <0> d          51.311  45.321  40.087  0.00  0.00    -0.021 C 
ATOM     11  C10 <0> d          51.712  46.551  40.848  0.00  0.00     0.018 C 
ATOM     12  C11 <0> d          52.017  47.736  39.950  0.00  0.00     0.006 C 
ATOM     13  C12 <0> d          52.221  49.044  40.697  0.00  0.00     0.007 C 
ATOM     14  C13 <0> d          51.254  49.304  41.853  0.00  0.00     0.013 C 
ATOM     15  C14 <0> d          51.183  48.086  42.744  0.00  0.00    -0.009 C 
ATOM     16  C15 <0> d          50.684  46.894  41.896  0.00  0.00     0.005 C 
ATOM     17  C16 <0> d          50.436  45.824  42.970  0.00  0.00     0.009 C 
ATOM     18  C17 <0> d          49.811  46.630  44.138  0.00  0.00     0.039 C 
ATOM     19  C18 <0> d          50.179  48.117  43.900  0.00  0.00     0.066 C 
ATOM     20  C22 <0> d          52.567  47.807  43.340  0.00  0.00     0.019 C 
ATOM     21  C19 <0> d          48.931  48.920  43.546  0.00  0.00     0.049 C 
ATOM     22  C20 <0> d          48.670  49.964  44.632  0.00  0.00     0.116 C 
ATOM     23  C21 <0> d          48.969  51.338  44.091  0.00  0.00     0.172 C 
ATOM     24  O2  <0> d          49.679  52.091  44.713  0.00  0.00    -0.648 OA
ATOM     25  O4  <0> d          48.445  51.724  42.916  0.00  0.00    -0.648 OA
ATOM     26  O3  <0> d          50.804  48.660  45.066  0.00  0.00    -0.389 OA
ATOM     27  H26 <0> d          50.400  49.479  45.383  0.00  0.00     0.210 HD
ENDMDL
MODEL 3
REMARK VINA RESULT:      -9.3      1.848      3.874
ATOM      1  C1  <0> d          51.932  48.737  41.135  0.00  0.00     0.021 C 
ATOM      2  C2  <0> d          50.803  47.730  41.349  0.00  0.00    -0.012 C 
ATOM      3  C3  <0> d          50.093  48.056  42.673  0.00  0.00     0.022 C 
ATOM      4  C4  <0> d          51.073  47.968  43.841  0.00  0.00     0.084 C 
ATOM      5  C5  <0> d          51.772  46.636  43.826  0.00  0.00     0.149 C 
ATOM      6  O1  <0> d          52.266  46.204  44.850  0.00  0.00    -0.293 OA
ATOM      7  C6  <0> d          51.855  45.881  42.648  0.00  0.00     0.058 C 
ATOM      8  C7  <0> d          51.396  46.347  41.461  0.00  0.00    -0.046 C 
ATOM      9  C8  <0> d          51.501  45.500  40.278  0.00  0.00     0.004 C 
ATOM     10  C9  <0> d          50.987  45.871  39.117  0.00  0.00    -0.021 C 
ATOM     11  C10 <0> d          50.217  47.145  38.921  0.00  0.00     0.018 C 
ATOM     12  C11 <0> d          49.776  47.781  40.226  0.00  0.00     0.006 C 
ATOM     13  C12 <0> d          49.179  49.171  40.068  0.00  0.00     0.007 C 
ATOM     14  C13 <0> d          49.897  50.089  39.078  0.00  0.00     0.013 C 
ATOM     15  C14 <0> d          50.123  49.361  37.774  0.00  0.00    -0.009 C 
ATOM     16  C15 <0> d          50.989  48.114  38.061  0.00  0.00     0.005 C 
ATOM     17  C16 <0> d          51.328  47.630  36.642  0.00  0.00     0.009 C 
ATOM     18  C17 <0> d          51.589  48.950  35.870  0.00  0.00     0.039 C 
ATOM     19  C18 <0> d          50.928  50.085  36.692  0.00  0.00     0.066 C 
ATOM     20  C22 <0> d          48.771  48.972  37.164  0.00  0.00     0.019 C 
ATOM     21  C19 <0> d          51.996  50.993  37.292  0.00  0.00     0.049 C 
ATOM     22  C20 <0> d          51.637  52.455  37.021  0.00  0.00     0.116 C 
ATOM     23  C21 <0> d          52.523  53.352  37.845  0.00  0.00     0.172 C 
ATOM     24  O2  <0> d          52.828  54.445  37.432  0.00  0.00    -0.648 OA
ATOM     25  O4  <0> d          52.971  52.936  39.041  0.00  0.00    -0.648 OA
ATOM     26  O3  <0> d          50.044  50.842  35.860  0.00  0.00    -0.389 OA
ATOM     27  H26 <0> d          49.768  50.379  35.057  0.00  0.00     0.210 HD
ENDMDL
MODEL 4
REMARK VINA RESULT:      -9.1      2.497      7.437
ATOM      1  C1  <0> d          49.726  48.496  39.235  0.00  0.00     0.021 C 
ATOM      2  C2  <0> d          51.109  48.002  38.814  0.00  0.00    -0.012 C 
ATOM      3  C3  <0> d          51.755  49.056  37.899  0.00  0.00     0.022 C 
ATOM      4  C4  <0> d          50.900  49.276  36.653  0.00  0.00     0.084 C 
ATOM      5  C5  <0> d          50.622  47.958  35.980  0.00  0.00     0.149 C 
ATOM      6  O1  <0> d          50.327  47.936  34.802  0.00  0.00    -0.293 OA
ATOM      7  C6  <0> d          50.709  46.755  36.694  0.00  0.00     0.058 C 
ATOM      8  C7  <0> d          50.954  46.725  38.027  0.00  0.00    -0.046 C 
ATOM      9  C8  <0> d          51.047  45.435  38.702  0.00  0.00     0.004 C 
ATOM     10  C9  <0> d          51.374  45.349  39.981  0.00  0.00    -0.021 C 
ATOM     11  C10 <0> d          51.725  46.538  40.828  0.00  0.00     0.018 C 
ATOM     12  C11 <0> d          52.022  47.783  40.014  0.00  0.00     0.006 C 
ATOM     13  C12 <0> d          52.176  49.046  40.847  0.00  0.00     0.007 C 
ATOM     14  C13 <0> d          51.174  49.210  41.990  0.00  0.00     0.013 C 
ATOM     15  C14 <0> d          51.111  47.938  42.802  0.00  0.00    -0.009 C 
ATOM     16  C15 <0> d          50.663  46.790  41.869  0.00  0.00     0.005 C 
ATOM     17  C16 <0> d          50.415  45.648  42.866  0.00  0.00     0.009 C 
ATOM     18  C17 <0> d          49.742  46.365  44.066  0.00  0.00     0.039 C 
ATOM     19  C18 <0> d          50.079  47.873  43.930  0.00  0.00     0.066 C 
ATOM     20  C22 <0> d          52.487  47.653  43.415  0.00  0.00     0.019 C 
ATOM     21  C19 <0> d          48.820  48.666  43.594  0.00  0.00     0.049 C 
ATOM     22  C20 <0> d          48.210  49.225  44.881  0.00  0.00     0.116 C 
ATOM     23  C21 <0> d          47.065  48.347  45.317  0.00  0.00     0.172 C 
ATOM     24  O2  <0> d          46.161  48.109  44.552  0.00  0.00    -0.648 OA
ATOM     25  O4  <0> d          47.052  47.830  46.555  0.00  0.00    -0.648 OA
ATOM     26  O3  <0> d          50.661  48.355  45.145  0.00  0.00    -0.389 OA
ATOM     27  H26 <0> d          50.014  48.652  45.799  0.00  0.00     0.210 HD
ENDMDL
MODEL 5
REMARK VINA RESULT:      -9.0      5.936      9.095
ATOM      1  C1  <0> d          44.484  50.016  44.987  0.00  0.00     0.021 C 
ATOM      2  C2  <0> d          44.208  51.374  44.345  0.00  0.00    -0.012 C 
ATOM      3  C3  <0> d          43.193  52.136  45.214  0.00  0.00     0.022 C 
ATOM      4  C4  <0> d          41.886  51.355  45.318  0.00  0.00     0.084 C 
ATOM      5  C5  <0> d          41.384  51.007  43.942  0.00  0.00     0.149 C 
ATOM      6  O1  <0> d          40.205  50.761  43.777  0.00  0.00    -0.293 OA
ATOM      7  C6  <0> d          42.257  50.972  42.846  0.00  0.00     0.058 C 
ATOM      8  C7  <0> d          43.593  51.156  42.985  0.00  0.00    -0.046 C 
ATOM      9  C8  <0> d          44.440  51.122  41.798  0.00  0.00     0.004 C 
ATOM     10  C9  <0> d          45.735  51.385  41.867  0.00  0.00    -0.021 C 
ATOM     11  C10 <0> d          46.431  51.790  43.135  0.00  0.00     0.018 C 
ATOM     12  C11 <0> d          45.472  52.215  44.231  0.00  0.00     0.006 C 
ATOM     13  C12 <0> d          46.134  52.429  45.584  0.00  0.00     0.007 C 
ATOM     14  C13 <0> d          47.190  51.395  45.974  0.00  0.00     0.013 C 
ATOM     15  C14 <0> d          48.162  51.200  44.834  0.00  0.00    -0.009 C 
ATOM     16  C15 <0> d          47.370  50.707  43.602  0.00  0.00     0.005 C 
ATOM     17  C16 <0> d          48.498  50.330  42.630  0.00  0.00     0.009 C 
ATOM     18  C17 <0> d          49.553  49.662  43.551  0.00  0.00     0.039 C 
ATOM     19  C18 <0> d          49.232  50.118  44.998  0.00  0.00     0.066 C 
ATOM     20  C22 <0> d          48.880  52.522  44.542  0.00  0.00     0.019 C 
ATOM     21  C19 <0> d          48.726  48.939  45.823  0.00  0.00     0.049 C 
ATOM     22  C20 <0> d          49.418  47.657  45.360  0.00  0.00     0.116 C 
ATOM     23  C21 <0> d          49.575  46.719  46.528  0.00  0.00     0.172 C 
ATOM     24  O2  <0> d          48.825  46.799  47.471  0.00  0.00    -0.648 OA
ATOM     25  O4  <0> d          50.547  45.794  46.520  0.00  0.00    -0.648 OA
ATOM     26  O3  <0> d          50.399  50.683  45.603  0.00  0.00    -0.389 OA
ATOM     27  H26 <0> d          51.023  50.026  45.942  0.00  0.00     0.210 HD
ENDMDL
MODEL 6
REMARK VINA RESULT:      -8.6     11.637     13.886
ATOM      1  C1  <0> d          38.228  53.436  45.536  0.00  0.00     0.021 C 
ATOM      2  C2  <0> d          39.134  52.987  46.681  0.00  0.00    -0.012 C 
ATOM      3  C3  <0> d          38.262  52.666  47.907  0.00  0.00     0.022 C 
ATOM      4  C4  <0> d          37.477  53.901  48.342  0.00  0.00     0.084 C 
ATOM      5  C5  <0> d          38.413  55.064  48.536  0.00  0.00     0.149 C 
ATOM      6  O1  <0> d          38.080  55.991  49.247  0.00  0.00    -0.293 OA
ATOM      7  C6  <0> d          39.669  55.087  47.913  0.00  0.00     0.058 C 
ATOM      8  C7  <0> d          40.059  54.121  47.046  0.00  0.00    -0.046 C 
ATOM      9  C8  <0> d          41.387  54.201  46.447  0.00  0.00     0.004 C 
ATOM     10  C9  <0> d          41.850  53.238  45.665  0.00  0.00    -0.021 C 
ATOM     11  C10 <0> d          41.093  51.975  45.371  0.00  0.00     0.018 C 
ATOM     12  C11 <0> d          39.932  51.741  46.319  0.00  0.00     0.006 C 
ATOM     13  C12 <0> d          39.027  50.586  45.917  0.00  0.00     0.007 C 
ATOM     14  C13 <0> d          38.713  50.481  44.425  0.00  0.00     0.013 C 
ATOM     15  C14 <0> d          39.990  50.573  43.625  0.00  0.00    -0.009 C 
ATOM     16  C15 <0> d          40.654  51.935  43.929  0.00  0.00     0.005 C 
ATOM     17  C16 <0> d          41.779  51.980  42.883  0.00  0.00     0.009 C 
ATOM     18  C17 <0> d          41.110  51.385  41.616  0.00  0.00     0.039 C 
ATOM     19  C18 <0> d          39.865  50.596  42.099  0.00  0.00     0.066 C 
ATOM     20  C22 <0> d          40.913  49.407  43.997  0.00  0.00     0.019 C 
ATOM     21  C19 <0> d          38.589  51.296  41.644  0.00  0.00     0.049 C 
ATOM     22  C20 <0> d          37.684  50.292  40.927  0.00  0.00     0.116 C 
ATOM     23  C21 <0> d          36.341  50.250  41.609  0.00  0.00     0.172 C 
ATOM     24  O2  <0> d          36.031  49.290  42.273  0.00  0.00    -0.648 OA
ATOM     25  O4  <0> d          35.490  51.280  41.478  0.00  0.00    -0.648 OA
ATOM     26  O3  <0> d          39.906  49.259  41.592  0.00  0.00    -0.389 OA
ATOM     27  H26 <0> d          40.535  48.685  42.050  0.00  0.00     0.210 HD
ENDMDL
MODEL 7
REMARK VINA RESULT:      -8.6      2.611      7.778
ATOM      1  C1  <0> d          48.813  47.719  40.596  0.00  0.00     0.021 C 
ATOM      2  C2  <0> d          49.693  48.958  40.442  0.00  0.00    -0.012 C 
ATOM      3  C3  <0> d          48.947  49.992  39.582  0.00  0.00     0.022 C 
ATOM      4  C4  <0> d          48.642  49.417  38.201  0.00  0.00     0.084 C 
ATOM      5  C5  <0> d          49.903  48.886  37.574  0.00  0.00     0.149 C 
ATOM      6  O1  <0> d          49.969  48.766  36.366  0.00  0.00    -0.293 OA
ATOM      7  C6  <0> d          51.005  48.535  38.365  0.00  0.00     0.058 C 
ATOM      8  C7  <0> d          50.959  48.571  39.719  0.00  0.00    -0.046 C 
ATOM      9  C8  <0> d          52.151  48.208  40.479  0.00  0.00     0.004 C 
ATOM     10  C9  <0> d          52.186  48.312  41.797  0.00  0.00    -0.021 C 
ATOM     11  C10 <0> d          51.050  48.854  42.616  0.00  0.00     0.018 C 
ATOM     12  C11 <0> d          50.019  49.595  41.786  0.00  0.00     0.006 C 
ATOM     13  C12 <0> d          48.760  49.971  42.554  0.00  0.00     0.007 C 
ATOM     14  C13 <0> d          48.221  48.902  43.504  0.00  0.00     0.013 C 
ATOM     15  C14 <0> d          49.341  48.376  44.371  0.00  0.00    -0.009 C 
ATOM     16  C15 <0> d          50.421  47.766  43.449  0.00  0.00     0.005 C 
ATOM     17  C16 <0> d          51.347  47.074  44.461  0.00  0.00     0.009 C 
ATOM     18  C17 <0> d          50.358  46.460  45.486  0.00  0.00     0.039 C 
ATOM     19  C18 <0> d          49.015  47.216  45.315  0.00  0.00     0.066 C 
ATOM     20  C22 <0> d          49.911  49.518  45.219  0.00  0.00     0.019 C 
ATOM     21  C19 <0> d          47.958  46.286  44.728  0.00  0.00     0.049 C 
ATOM     22  C20 <0> d          48.607  44.959  44.331  0.00  0.00     0.116 C 
ATOM     23  C21 <0> d          47.694  43.821  44.701  0.00  0.00     0.172 C 
ATOM     24  O2  <0> d          46.621  43.706  44.159  0.00  0.00    -0.648 OA
ATOM     25  O4  <0> d          48.073  42.932  45.633  0.00  0.00    -0.648 OA
ATOM     26  O3  <0> d          48.578  47.730  46.577  0.00  0.00    -0.389 OA
ATOM     27  H26 <0> d          48.622  48.693  46.645  0.00  0.00     0.210 HD
ENDMDL
MODEL 8
REMARK VINA RESULT:      -8.5      7.906     10.864
ATOM      1  C1  <0> d          42.651  53.134  45.654  0.00  0.00     0.021 C 
ATOM      2  C2  <0> d          41.581  52.401  44.848  0.00  0.00    -0.012 C 
ATOM      3  C3  <0> d          40.862  53.413  43.941  0.00  0.00     0.022 C 
ATOM      4  C4  <0> d          40.199  54.504  44.779  0.00  0.00     0.084 C 
ATOM      5  C5  <0> d          39.320  53.882  45.830  0.00  0.00     0.149 C 
ATOM      6  O1  <0> d          38.416  54.531  46.319  0.00  0.00    -0.293 OA
ATOM      7  C6  <0> d          39.525  52.560  46.248  0.00  0.00     0.058 C 
ATOM      8  C7  <0> d          40.566  51.817  45.799  0.00  0.00    -0.046 C 
ATOM      9  C8  <0> d          40.708  50.442  46.264  0.00  0.00     0.004 C 
ATOM     10  C9  <0> d          41.653  49.647  45.788  0.00  0.00    -0.021 C 
ATOM     11  C10 <0> d          42.613  50.056  44.708  0.00  0.00     0.018 C 
ATOM     12  C11 <0> d          42.180  51.309  43.970  0.00  0.00     0.006 C 
ATOM     13  C12 <0> d          43.230  51.862  43.018  0.00  0.00     0.007 C 
ATOM     14  C13 <0> d          44.668  51.846  43.539  0.00  0.00     0.013 C 
ATOM     15  C14 <0> d          44.995  50.482  44.098  0.00  0.00    -0.009 C 
ATOM     16  C15 <0> d          44.013  50.183  45.253  0.00  0.00     0.005 C 
ATOM     17  C16 <0> d          44.616  48.907  45.860  0.00  0.00     0.009 C 
ATOM     18  C17 <0> d          46.143  49.177  45.809  0.00  0.00     0.039 C 
ATOM     19  C18 <0> d          46.361  50.305  44.767  0.00  0.00     0.066 C 
ATOM     20  C22 <0> d          44.884  49.433  42.986  0.00  0.00     0.019 C 
ATOM     21  C19 <0> d          46.823  51.581  45.462  0.00  0.00     0.049 C 
ATOM     22  C20 <0> d          48.343  51.704  45.347  0.00  0.00     0.116 C 
ATOM     23  C21 <0> d          48.692  52.989  44.642  0.00  0.00     0.172 C 
ATOM     24  O2  <0> d          49.847  53.324  44.533  0.00  0.00    -0.648 OA
ATOM     25  O4  <0> d          47.718  53.761  44.133  0.00  0.00    -0.648 OA
ATOM     26  O3  <0> d          47.325  49.892  43.794  0.00  0.00    -0.389 OA
ATOM     27  H26 <0> d          47.201  50.295  42.923  0.00  0.00     0.210 HD
ENDMDL
MODEL 9
REMARK VINA RESULT:      -8.5      5.887      8.692
ATOM      1  C1  <0> d          46.257  49.311  45.089  0.00  0.00     0.021 C 
ATOM      2  C2  <0> d          46.829  50.488  44.303  0.00  0.00    -0.012 C 
ATOM      3  C3  <0> d          46.563  51.784  45.086  0.00  0.00     0.022 C 
ATOM      4  C4  <0> d          45.063  51.992  45.280  0.00  0.00     0.084 C 
ATOM      5  C5  <0> d          44.357  51.915  43.953  0.00  0.00     0.149 C 
ATOM      6  O1  <0> d          43.268  52.438  43.820  0.00  0.00    -0.293 OA
ATOM      7  C6  <0> d          44.944  51.254  42.865  0.00  0.00     0.058 C 
ATOM      8  C7  <0> d          46.116  50.584  42.977  0.00  0.00    -0.046 C 
ATOM      9  C8  <0> d          46.677  49.933  41.798  0.00  0.00     0.004 C 
ATOM     10  C9  <0> d          47.861  49.343  41.834  0.00  0.00    -0.021 C 
ATOM     11  C10 <0> d          48.746  49.335  43.046  0.00  0.00     0.018 C 
ATOM     12  C11 <0> d          48.332  50.353  44.093  0.00  0.00     0.006 C 
ATOM     13  C12 <0> d          49.079  50.225  45.411  0.00  0.00     0.007 C 
ATOM     14  C13 <0> d          49.300  48.796  45.909  0.00  0.00     0.013 C 
ATOM     15  C14 <0> d          49.863  47.947  44.794  0.00  0.00    -0.009 C 
ATOM     16  C15 <0> d          48.851  47.948  43.627  0.00  0.00     0.005 C 
ATOM     17  C16 <0> d          49.436  46.873  42.698  0.00  0.00     0.009 C 
ATOM     18  C17 <0> d          49.919  45.777  43.684  0.00  0.00     0.039 C 
ATOM     19  C18 <0> d          50.051  46.453  45.073  0.00  0.00     0.066 C 
ATOM     20  C22 <0> d          51.220  48.511  44.356  0.00  0.00     0.019 C 
ATOM     21  C19 <0> d          48.987  45.915  46.024  0.00  0.00     0.049 C 
ATOM     22  C20 <0> d          48.427  44.602  45.475  0.00  0.00     0.116 C 
ATOM     23  C21 <0> d          46.922  44.665  45.458  0.00  0.00     0.172 C 
ATOM     24  O2  <0> d          46.341  45.432  46.187  0.00  0.00    -0.648 OA
ATOM     25  O4  <0> d          46.227  43.869  44.630  0.00  0.00    -0.648 OA
ATOM     26  O3  <0> d          51.358  46.223  45.608  0.00  0.00    -0.389 OA
ATOM     27  H26 <0> d          51.364  45.677  46.405  0.00  0.00     0.210 HD
ENDMDL
MODEL 10
REMARK VINA RESULT:      -8.5      5.696      8.536
ATOM      1  C1  <0> d          45.575  49.180  43.836  0.00  0.00     0.021 C 
ATOM      2  C2  <0> d          45.247  49.729  45.222  0.00  0.00    -0.012 C 
ATOM      3  C3  <0> d          43.816  49.308  45.597  0.00  0.00     0.022 C 
ATOM      4  C4  <0> d          42.814  49.861  44.586  0.00  0.00     0.084 C 
ATOM      5  C5  <0> d          43.002  51.347  44.438  0.00  0.00     0.149 C 
ATOM      6  O1  <0> d          42.087  52.030  44.020  0.00  0.00    -0.293 OA
ATOM      7  C6  <0> d          44.216  51.956  44.783  0.00  0.00     0.058 C 
ATOM      8  C7  <0> d          45.296  51.236  45.175  0.00  0.00    -0.046 C 
ATOM      9  C8  <0> d          46.523  51.938  45.536  0.00  0.00     0.004 C 
ATOM     10  C9  <0> d          47.574  51.289  46.011  0.00  0.00    -0.021 C 
ATOM     11  C10 <0> d          47.586  49.811  46.271  0.00  0.00     0.018 C 
ATOM     12  C11 <0> d          46.199  49.196  46.285  0.00  0.00     0.006 C 
ATOM     13  C12 <0> d          46.195  47.676  46.338  0.00  0.00     0.007 C 
ATOM     14  C13 <0> d          47.232  46.982  45.456  0.00  0.00     0.013 C 
ATOM     15  C14 <0> d          48.590  47.604  45.675  0.00  0.00    -0.009 C 
ATOM     16  C15 <0> d          48.502  49.102  45.304  0.00  0.00     0.005 C 
ATOM     17  C16 <0> d          49.978  49.526  45.343  0.00  0.00     0.009 C 
ATOM     18  C17 <0> d          50.711  48.317  44.706  0.00  0.00     0.039 C 
ATOM     19  C18 <0> d          49.742  47.111  44.795  0.00  0.00     0.066 C 
ATOM     20  C22 <0> d          49.010  47.415  47.137  0.00  0.00     0.019 C 
ATOM     21  C19 <0> d          49.263  46.715  43.402  0.00  0.00     0.049 C 
ATOM     22  C20 <0> d          50.356  47.025  42.378  0.00  0.00     0.116 C 
ATOM     23  C21 <0> d          51.122  45.767  42.065  0.00  0.00     0.172 C 
ATOM     24  O2  <0> d          50.895  45.159  41.046  0.00  0.00    -0.648 OA
ATOM     25  O4  <0> d          52.059  45.323  42.917  0.00  0.00    -0.648 OA
ATOM     26  O3  <0> d          50.393  46.005  45.428  0.00  0.00    -0.389 OA
ATOM     27  H26 <0> d          51.072  45.585  44.884  0.00  0.00     0.210 HD
ENDMDL
MODEL 1
REMARK VINA RESULT:      -9.4      0.000      0.000
ATOM      1  C1  <0> d          50.568  48.230  39.673  0.00  0.00     0.021 C 
ATOM      2  C2  <0> d          51.228  48.912  40.872  0.00  0.00    -0.012 C 
ATOM      3  C3  <0> d          52.424  48.061  41.329  0.00  0.00     0.022 C 
ATOM      4  C4  <0> d          51.961  46.665  41.736  0.00  0.00     0.084 C 
ATOM      5  C5  <0> d          50.852  46.766  42.749  0.00  0.00     0.149 C 
ATOM      6  O1  <0> d          50.625  45.828  43.488  0.00  0.00    -0.293 OA
ATOM      7  C6  <0> d          50.081  47.932  42.855  0.00  0.00     0.058 C 
ATOM      8  C7  <0> d          50.235  48.976  42.005  0.00  0.00    -0.046 C 
ATOM      9  C8  <0> d          49.409  50.165  42.185  0.00  0.00     0.004 C 
ATOM     10  C9  <0> d          49.582  51.244  41.442  0.00  0.00    -0.021 C 
ATOM     11  C10 <0> d          50.656  51.368  40.399  0.00  0.00     0.018 C 
ATOM     12  C11 <0> d          51.733  50.306  40.524  0.00  0.00     0.006 C 
ATOM     13  C12 <0> d          52.716  50.280  39.364  0.00  0.00     0.007 C 
ATOM     14  C13 <0> d          52.101  50.459  37.974  0.00  0.00     0.013 C 
ATOM     15  C14 <0> d          51.175  51.651  37.973  0.00  0.00    -0.009 C 
ATOM     16  C15 <0> d          50.060  51.398  39.014  0.00  0.00     0.005 C 
ATOM     17  C16 <0> d          49.090  52.554  38.726  0.00  0.00     0.009 C 
ATOM     18  C17 <0> d          49.096  52.644  37.177  0.00  0.00     0.039 C 
ATOM     19  C18 <0> d          50.381  51.925  36.693  0.00  0.00     0.066 C 
ATOM     20  C22 <0> d          51.971  52.918  38.306  0.00  0.00     0.019 C 
ATOM     21  C19 <0> d          50.021  50.636  35.962  0.00  0.00     0.049 C 
ATOM     22  C20 <0> d          50.742  50.596  34.614  0.00  0.00     0.116 C 
ATOM     23  C21 <0> d          51.644  49.389  34.561  0.00  0.00     0.172 C 
ATOM     24  O2  <0> d          51.177  48.293  34.360  0.00  0.00    -0.648 OA
ATOM     25  O4  <0> d          52.967  49.533  34.735  0.00  0.00    -0.648 OA
ATOM     26  O3  <0> d          51.133  52.789  35.836  0.00  0.00    -0.389 OA
ATOM     27  H26 <0> d          51.388  52.384  34.995  0.00  0.00     0.210 HD
ENDMDL
MODEL 2
REMARK VINA RESULT:      -9.3      1.873      3.909
ATOM      1  C1  <0> d          51.927  48.653  41.056  0.00  0.00     0.021 C 
ATOM      2  C2  <0> d          50.803  47.644  41.285  0.00  0.00    -0.012 C 
ATOM      3  C3  <0> d          50.102  47.976  42.612  0.00  0.00     0.022 C 
ATOM      4  C4  <0> d          51.090  47.899  43.772  0.00  0.00     0.084 C 
ATOM      5  C5  <0> d          51.793  46.568  43.760  0.00  0.00     0.149 C 
ATOM      6  O1  <0> d          52.296  46.144  44.783  0.00  0.00    -0.293 OA
ATOM      7  C6  <0> d          51.870  45.806  42.586  0.00  0.00     0.058 C 
ATOM      8  C7  <0> d          51.400  46.265  41.400  0.00  0.00    -0.046 C 
ATOM      9  C8  <0> d          51.499  45.411  40.221  0.00  0.00     0.004 C 
ATOM     10  C9  <0> d          50.976  45.773  39.062  0.00  0.00    -0.021 C 
ATOM     11  C10 <0> d          50.201  47.044  38.864  0.00  0.00     0.018 C 
ATOM     12  C11 <0> d          49.767  47.687  40.169  0.00  0.00     0.006 C 
ATOM     13  C12 <0> d          49.165  49.073  40.006  0.00  0.00     0.007 C 
ATOM     14  C13 <0> d          49.874  49.987  39.005  0.00  0.00     0.013 C 
ATOM     15  C14 <0> d          50.091  49.252  37.705  0.00  0.00    -0.009 C 
ATOM     16  C15 <0> d          50.964  48.009  37.992  0.00  0.00     0.005 C 
ATOM     17  C16 <0> d          51.292  47.518  36.574  0.00  0.00     0.009 C 
ATOM     18  C17 <0> d          51.544  48.834  35.792  0.00  0.00     0.039 C 
ATOM     19  C18 <0> d          50.886  49.973  36.613  0.00  0.00     0.066 C 
ATOM     20  C22 <0> d          48.736  48.856  37.107  0.00  0.00     0.019 C 
ATOM     21  C19 <0> d          51.956  50.887  37.200  0.00  0.00     0.049 C 
ATOM     22  C20 <0> d          51.596  52.345  36.911  0.00  0.00     0.116 C 
ATOM     23  C21 <0> d          52.424  53.251  37.786  0.00  0.00     0.172 C 
ATOM     24  O2  <0> d          52.719  54.358  37.402  0.00  0.00    -0.648 OA
ATOM     25  O4  <0> d          52.833  52.828  38.992  0.00  0.00    -0.648 OA
ATOM     26  O3  <0> d          49.994  50.722  35.783  0.00  0.00    -0.389 OA
ATOM     27  H26 <0> d          49.121  50.317  35.678  0.00  0.00     0.210 HD
ENDMDL
MODEL 3
REMARK VINA RESULT:      -9.3      2.599      6.998
ATOM      1  C1  <0> d          49.716  48.463  39.166  0.00  0.00     0.021 C 
ATOM      2  C2  <0> d          51.078  47.907  38.753  0.00  0.00    -0.012 C 
ATOM      3  C3  <0> d          51.725  48.874  37.749  0.00  0.00     0.022 C 
ATOM      4  C4  <0> d          50.846  49.023  36.510  0.00  0.00     0.084 C 
ATOM      5  C5  <0> d          50.524  47.667  35.942  0.00  0.00     0.149 C 
ATOM      6  O1  <0> d          50.200  47.565  34.775  0.00  0.00    -0.293 OA
ATOM      7  C6  <0> d          50.600  46.517  36.741  0.00  0.00     0.058 C 
ATOM      8  C7  <0> d          50.876  46.580  38.066  0.00  0.00    -0.046 C 
ATOM      9  C8  <0> d          50.955  45.341  38.833  0.00  0.00     0.004 C 
ATOM     10  C9  <0> d          51.310  45.340  40.106  0.00  0.00    -0.021 C 
ATOM     11  C10 <0> d          51.708  46.579  40.857  0.00  0.00     0.018 C 
ATOM     12  C11 <0> d          52.014  47.755  39.946  0.00  0.00     0.006 C 
ATOM     13  C12 <0> d          52.215  49.071  40.680  0.00  0.00     0.007 C 
ATOM     14  C13 <0> d          51.244  49.341  41.830  0.00  0.00     0.013 C 
ATOM     15  C14 <0> d          51.171  48.134  42.734  0.00  0.00    -0.009 C 
ATOM     16  C15 <0> d          50.676  46.932  41.898  0.00  0.00     0.005 C 
ATOM     17  C16 <0> d          50.427  45.873  42.982  0.00  0.00     0.009 C 
ATOM     18  C17 <0> d          49.798  46.692  44.140  0.00  0.00     0.039 C 
ATOM     19  C18 <0> d          50.165  48.177  43.886  0.00  0.00     0.066 C 
ATOM     20  C22 <0> d          52.555  47.862  43.337  0.00  0.00     0.019 C 
ATOM     21  C19 <0> d          48.917  48.974  43.521  0.00  0.00     0.049 C 
ATOM     22  C20 <0> d          48.682  50.063  44.568  0.00  0.00     0.116 C 
ATOM     23  C21 <0> d          48.931  51.416  43.953  0.00  0.00     0.172 C 
ATOM     24  O2  <0> d          48.478  51.678  42.864  0.00  0.00    -0.648 OA
ATOM     25  O4  <0> d          49.657  52.330  44.615  0.00  0.00    -0.648 OA
ATOM     26  O3  <0> d          50.786  48.733  45.049  0.00  0.00    -0.389 OA
ATOM     27  H26 <0> d          51.594  48.276  45.320  0.00  0.00     0.210 HD
ENDMDL
MODEL 4
REMARK VINA RESULT:      -9.3      1.901      3.665
ATOM      1  C1  <0> d          51.165  50.138  41.300  0.00  0.00     0.021 C 
ATOM      2  C2  <0> d          50.556  48.745  41.136  0.00  0.00    -0.012 C 
ATOM      3  C3  <0> d          49.564  48.500  42.284  0.00  0.00     0.022 C 
ATOM      4  C4  <0> d          50.276  48.581  43.631  0.00  0.00     0.084 C 
ATOM      5  C5  <0> d          51.470  47.663  43.639  0.00  0.00     0.149 C 
ATOM      6  O1  <0> d          51.921  47.272  44.697  0.00  0.00    -0.293 OA
ATOM      7  C6  <0> d          52.063  47.248  42.439  0.00  0.00     0.058 C 
ATOM      8  C7  <0> d          51.655  47.717  41.234  0.00  0.00    -0.046 C 
ATOM      9  C8  <0> d          52.309  47.229  40.025  0.00  0.00     0.004 C 
ATOM     10  C9  <0> d          51.888  47.584  38.823  0.00  0.00    -0.021 C 
ATOM     11  C10 <0> d          50.692  48.462  38.589  0.00  0.00     0.018 C 
ATOM     12  C11 <0> d          49.809  48.605  39.815  0.00  0.00     0.006 C 
ATOM     13  C12 <0> d          48.712  49.647  39.672  0.00  0.00     0.007 C 
ATOM     14  C13 <0> d          49.124  50.949  38.980  0.00  0.00     0.013 C 
ATOM     15  C14 <0> d          49.854  50.638  37.696  0.00  0.00    -0.009 C 
ATOM     16  C15 <0> d          51.109  49.805  38.042  0.00  0.00     0.005 C 
ATOM     17  C16 <0> d          51.853  49.780  36.699  0.00  0.00     0.009 C 
ATOM     18  C17 <0> d          51.651  51.219  36.154  0.00  0.00     0.039 C 
ATOM     19  C18 <0> d          50.440  51.817  36.916  0.00  0.00     0.066 C 
ATOM     20  C22 <0> d          48.921  49.873  36.749  0.00  0.00     0.019 C 
ATOM     21  C19 <0> d          50.901  52.937  37.843  0.00  0.00     0.049 C 
ATOM     22  C20 <0> d          52.156  53.593  37.266  0.00  0.00     0.116 C 
ATOM     23  C21 <0> d          53.204  53.710  38.343  0.00  0.00     0.172 C 
ATOM     24  O2  <0> d          53.320  52.839  39.171  0.00  0.00    -0.648 OA
ATOM     25  O4  <0> d          54.009  54.783  38.380  0.00  0.00    -0.648 OA
ATOM     26  O3  <0> d          49.471  52.309  35.986  0.00  0.00    -0.389 OA
ATOM     27  H26 <0> d          48.743  52.796  36.397  0.00  0.00     0.210 HD
ENDMDL
MODEL 5
REMARK VINA RESULT:      -9.1      2.580      7.485
ATOM      1  C1  <0> d          49.691  48.360  39.260  0.00  0.00     0.021 C 
ATOM      2  C2  <0> d          51.080  47.881  38.837  0.00  0.00    -0.012 C 
ATOM      3  C3  <0> d          51.700  48.927  37.897  0.00  0.00     0.022 C 
ATOM      4  C4  <0> d          50.832  49.111  36.656  0.00  0.00     0.084 C 
ATOM      5  C5  <0> d          50.571  47.777  36.009  0.00  0.00     0.149 C 
ATOM      6  O1  <0> d          50.265  47.728  34.833  0.00  0.00    -0.293 OA
ATOM      7  C6  <0> d          50.682  46.588  36.744  0.00  0.00     0.058 C 
ATOM      8  C7  <0> d          50.939  46.587  38.075  0.00  0.00    -0.046 C 
ATOM      9  C8  <0> d          51.058  45.312  38.773  0.00  0.00     0.004 C 
ATOM     10  C9  <0> d          51.396  45.254  40.049  0.00  0.00    -0.021 C 
ATOM     11  C10 <0> d          51.736  46.463  40.873  0.00  0.00     0.018 C 
ATOM     12  C11 <0> d          52.006  47.699  40.033  0.00  0.00     0.006 C 
ATOM     13  C12 <0> d          52.146  48.979  40.841  0.00  0.00     0.007 C 
ATOM     14  C13 <0> d          51.150  49.147  41.991  0.00  0.00     0.013 C 
ATOM     15  C14 <0> d          51.115  47.889  42.826  0.00  0.00    -0.009 C 
ATOM     16  C15 <0> d          50.678  46.718  41.917  0.00  0.00     0.005 C 
ATOM     17  C16 <0> d          50.457  45.591  42.937  0.00  0.00     0.009 C 
ATOM     18  C17 <0> d          49.782  46.319  44.129  0.00  0.00     0.039 C 
ATOM     19  C18 <0> d          50.092  47.829  43.963  0.00  0.00     0.066 C 
ATOM     20  C22 <0> d          52.500  47.638  43.432  0.00  0.00     0.019 C 
ATOM     21  C19 <0> d          48.819  48.596  43.624  0.00  0.00     0.049 C 
ATOM     22  C20 <0> d          48.203  49.154  44.907  0.00  0.00     0.116 C 
ATOM     23  C21 <0> d          47.114  48.229  45.387  0.00  0.00     0.172 C 
ATOM     24  O2  <0> d          46.161  47.999  44.681  0.00  0.00    -0.648 OA
ATOM     25  O4  <0> d          47.205  47.659  46.599  0.00  0.00    -0.648 OA
ATOM     26  O3  <0> d          50.677  48.343  45.164  0.00  0.00    -0.389 OA
ATOM     27  H26 <0> d          51.256  49.105  45.024  0.00  0.00     0.210 HD
ENDMDL
MODEL 6
REMARK VINA RESULT:      -9.0      5.902      9.046
ATOM      1  C1  <0> d          44.533  49.912  44.950  0.00  0.00     0.021 C 
ATOM      2  C2  <0> d          44.228  51.266  44.310  0.00  0.00    -0.012 C 
ATOM      3  C3  <0> d          43.191  52.001  45.175  0.00  0.00     0.022 C 
ATOM      4  C4  <0> d          41.903  51.188  45.270  0.00  0.00     0.084 C 
ATOM      5  C5  <0> d          41.416  50.832  43.891  0.00  0.00     0.149 C 
ATOM      6  O1  <0> d          40.244  50.558  43.719  0.00  0.00    -0.293 OA
ATOM      7  C6  <0> d          42.296  50.820  42.800  0.00  0.00     0.058 C 
ATOM      8  C7  <0> d          43.626  51.037  42.946  0.00  0.00    -0.046 C 
ATOM      9  C8  <0> d          44.480  51.025  41.764  0.00  0.00     0.004 C 
ATOM     10  C9  <0> d          45.767  51.320  41.840  0.00  0.00    -0.021 C 
ATOM     11  C10 <0> d          46.447  51.738  43.112  0.00  0.00     0.018 C 
ATOM     12  C11 <0> d          45.473  52.137  44.206  0.00  0.00     0.006 C 
ATOM     13  C12 <0> d          46.122  52.363  45.562  0.00  0.00     0.007 C 
ATOM     14  C13 <0> d          47.201  51.352  45.954  0.00  0.00     0.013 C 
ATOM     15  C14 <0> d          48.183  51.185  44.820  0.00  0.00    -0.009 C 
ATOM     16  C15 <0> d          47.409  50.676  43.582  0.00  0.00     0.005 C 
ATOM     17  C16 <0> d          48.551  50.330  42.615  0.00  0.00     0.009 C 
ATOM     18  C17 <0> d          49.617  49.684  43.541  0.00  0.00     0.039 C 
ATOM     19  C18 <0> d          49.278  50.128  44.987  0.00  0.00     0.066 C 
ATOM     20  C22 <0> d          48.870  52.525  44.535  0.00  0.00     0.019 C 
ATOM     21  C19 <0> d          48.796  48.936  45.806  0.00  0.00     0.049 C 
ATOM     22  C20 <0> d          49.540  47.677  45.360  0.00  0.00     0.116 C 
ATOM     23  C21 <0> d          49.575  46.684  46.494  0.00  0.00     0.172 C 
ATOM     24  O2  <0> d          48.729  46.720  47.355  0.00  0.00    -0.648 OA
ATOM     25  O4  <0> d          50.547  45.761  46.545  0.00  0.00    -0.648 OA
ATOM     26  O3  <0> d          50.428  50.719  45.599  0.00  0.00    -0.389 OA
ATOM     27  H26 <0> d          50.422  50.682  46.566  0.00  0.00     0.210 HD
ENDMDL
MODEL 7
REMARK VINA RESULT:      -8.7      2.636      7.674
ATOM      1  C1  <0> d          48.796  47.766  40.711  0.00  0.00     0.021 C 
ATOM      2  C2  <0> d          49.863  48.804  40.366  0.00  0.00    -0.012 C 
ATOM      3  C3  <0> d          49.224  49.902  39.501  0.00  0.00     0.022 C 
ATOM      4  C4  <0> d          48.664  49.308  38.211  0.00  0.00     0.084 C 
ATOM      5  C5  <0> d          49.729  48.509  37.508  0.00  0.00     0.149 C 
ATOM      6  O1  <0> d          49.635  48.301  36.314  0.00  0.00    -0.293 OA
ATOM      7  C6  <0> d          50.832  48.007  38.212  0.00  0.00     0.058 C 
ATOM      8  C7  <0> d          50.948  48.138  39.557  0.00  0.00    -0.046 C 
ATOM      9  C8  <0> d          52.132  47.605  40.221  0.00  0.00     0.004 C 
ATOM     10  C9  <0> d          52.336  47.786  41.515  0.00  0.00    -0.021 C 
ATOM     11  C10 <0> d          51.417  48.584  42.395  0.00  0.00     0.018 C 
ATOM     12  C11 <0> d          50.448  49.453  41.614  0.00  0.00     0.006 C 
ATOM     13  C12 <0> d          49.375  50.109  42.468  0.00  0.00     0.007 C 
ATOM     14  C13 <0> d          48.763  49.222  43.554  0.00  0.00     0.013 C 
ATOM     15  C14 <0> d          49.860  48.551  44.346  0.00  0.00    -0.009 C 
ATOM     16  C15 <0> d          50.700  47.690  43.375  0.00  0.00     0.005 C 
ATOM     17  C16 <0> d          51.595  46.903  44.344  0.00  0.00     0.009 C 
ATOM     18  C17 <0> d          50.633  46.554  45.511  0.00  0.00     0.039 C 
ATOM     19  C18 <0> d          49.438  47.537  45.412  0.00  0.00     0.066 C 
ATOM     20  C22 <0> d          50.721  49.617  45.034  0.00  0.00     0.019 C 
ATOM     21  C19 <0> d          48.171  46.788  45.014  0.00  0.00     0.049 C 
ATOM     22  C20 <0> d          48.142  45.428  45.711  0.00  0.00     0.116 C 
ATOM     23  C21 <0> d          47.991  44.337  44.681  0.00  0.00     0.172 C 
ATOM     24  O2  <0> d          48.021  44.609  43.504  0.00  0.00    -0.648 OA
ATOM     25  O4  <0> d          47.825  43.065  45.071  0.00  0.00    -0.648 OA
ATOM     26  O3  <0> d          49.248  48.204  46.663  0.00  0.00    -0.389 OA
ATOM     27  H26 <0> d          48.369  48.079  47.047  0.00  0.00     0.210 HD
ENDMDL
MODEL 8
REMARK VINA RESULT:      -8.7      1.778      2.124
ATOM      1  C1  <0> d          51.302  47.300  40.374  0.00  0.00     0.021 C 
ATOM      2  C2  <0> d          51.014  48.354  41.442  0.00  0.00    -0.012 C 
ATOM      3  C3  <0> d          52.080  48.246  42.544  0.00  0.00     0.022 C 
ATOM      4  C4  <0> d          52.048  46.861  43.183  0.00  0.00     0.084 C 
ATOM      5  C5  <0> d          50.651  46.537  43.641  0.00  0.00     0.149 C 
ATOM      6  O1  <0> d          50.481  45.702  44.508  0.00  0.00    -0.293 OA
ATOM      7  C6  <0> d          49.544  47.191  43.084  0.00  0.00     0.058 C 
ATOM      8  C7  <0> d          49.668  48.069  42.059  0.00  0.00    -0.046 C 
ATOM      9  C8  <0> d          48.472  48.725  41.540  0.00  0.00     0.004 C 
ATOM     10  C9  <0> d          48.549  49.656  40.604  0.00  0.00    -0.021 C 
ATOM     11  C10 <0> d          49.847  50.154  40.035  0.00  0.00     0.018 C 
ATOM     12  C11 <0> d          51.052  49.766  40.871  0.00  0.00     0.006 C 
ATOM     13  C12 <0> d          52.388  50.076  40.215  0.00  0.00     0.007 C 
ATOM     14  C13 <0> d          52.476  49.767  38.719  0.00  0.00     0.013 C 
ATOM     15  C14 <0> d          51.284  50.357  38.003  0.00  0.00    -0.009 C 
ATOM     16  C15 <0> d          50.003  49.726  38.597  0.00  0.00     0.005 C 
ATOM     17  C16 <0> d          48.924  50.229  37.626  0.00  0.00     0.009 C 
ATOM     18  C17 <0> d          49.616  50.123  36.241  0.00  0.00     0.039 C 
ATOM     19  C18 <0> d          51.142  50.058  36.509  0.00  0.00     0.066 C 
ATOM     20  C22 <0> d          51.286  51.880  38.174  0.00  0.00     0.019 C 
ATOM     21  C19 <0> d          51.682  48.677  36.152  0.00  0.00     0.049 C 
ATOM     22  C20 <0> d          50.526  47.773  35.724  0.00  0.00     0.116 C 
ATOM     23  C21 <0> d          50.348  46.670  36.736  0.00  0.00     0.172 C 
ATOM     24  O2  <0> d          49.272  46.497  37.258  0.00  0.00    -0.648 OA
ATOM     25  O4  <0> d          51.384  45.879  37.055  0.00  0.00    -0.648 OA
ATOM     26  O3  <0> d          51.815  51.066  35.750  0.00  0.00    -0.389 OA
ATOM     27  H26 <0> d          52.779  51.034  35.821  0.00  0.00     0.210 HD
ENDMDL
MODEL 9
REMARK VINA RESULT:      -8.6      1.861      6.498
ATOM      1  C1  <0> d          51.351  48.621  39.166  0.00  0.00     0.021 C 
ATOM      2  C2  <0> d          50.447  49.205  38.081  0.00  0.00    -0.012 C 
ATOM      3  C3  <0> d          50.393  48.221  36.900  0.00  0.00     0.022 C 
ATOM      4  C4  <0> d          51.789  47.999  36.326  0.00  0.00     0.084 C 
ATOM      5  C5  <0> d          52.428  49.322  35.999  0.00  0.00     0.149 C 
ATOM      6  O1  <0> d          53.329  49.371  35.185  0.00  0.00    -0.293 OA
ATOM      7  C6  <0> d          51.990  50.503  36.617  0.00  0.00     0.058 C 
ATOM      8  C7  <0> d          51.047  50.498  37.590  0.00  0.00    -0.046 C 
ATOM      9  C8  <0> d          50.628  51.767  38.177  0.00  0.00     0.004 C 
ATOM     10  C9  <0> d          49.649  51.826  39.063  0.00  0.00    -0.021 C 
ATOM     11  C10 <0> d          48.854  50.629  39.501  0.00  0.00     0.018 C 
ATOM     12  C11 <0> d          49.028  49.431  38.586  0.00  0.00     0.006 C 
ATOM     13  C12 <0> d          48.404  48.149  39.116  0.00  0.00     0.007 C 
ATOM     14  C13 <0> d          48.598  47.891  40.612  0.00  0.00     0.013 C 
ATOM     15  C14 <0> d          48.232  49.128  41.397  0.00  0.00    -0.009 C 
ATOM     16  C15 <0> d          49.153  50.282  40.938  0.00  0.00     0.005 C 
ATOM     17  C16 <0> d          48.834  51.372  41.972  0.00  0.00     0.009 C 
ATOM     18  C17 <0> d          48.709  50.577  43.299  0.00  0.00     0.039 C 
ATOM     19  C18 <0> d          48.465  49.096  42.909  0.00  0.00     0.066 C 
ATOM     20  C22 <0> d          46.755  49.466  41.162  0.00  0.00     0.019 C 
ATOM     21  C19 <0> d          49.676  48.247  43.279  0.00  0.00     0.049 C 
ATOM     22  C20 <0> d          49.235  47.095  44.182  0.00  0.00     0.116 C 
ATOM     23  C21 <0> d          49.463  45.784  43.473  0.00  0.00     0.172 C 
ATOM     24  O2  <0> d          48.528  45.059  43.228  0.00  0.00    -0.648 OA
ATOM     25  O4  <0> d          50.704  45.424  43.112  0.00  0.00    -0.648 OA
ATOM     26  O3  <0> d          47.294  48.604  43.567  0.00  0.00    -0.389 OA
ATOM     27  H26 <0> d          46.472  48.776  43.088  0.00  0.00     0.210 HD
ENDMDL
MODEL 10
REMARK VINA RESULT:      -8.6      7.925     10.002
ATOM      1  C1  <0> d          45.468  48.475  46.197  0.00  0.00     0.021 C 
ATOM      2  C2  <0> d          46.694  49.082  45.516  0.00  0.00    -0.012 C 
ATOM      3  C3  <0> d          47.574  47.943  44.974  0.00  0.00     0.022 C 
ATOM      4  C4  <0> d          48.029  47.033  46.111  0.00  0.00     0.084 C 
ATOM      5  C5  <0> d          48.677  47.851  47.197  0.00  0.00     0.149 C 
ATOM      6  O1  <0> d          49.449  47.320  47.971  0.00  0.00    -0.293 OA
ATOM      7  C6  <0> d          48.406  49.221  47.322  0.00  0.00     0.058 C 
ATOM      8  C7  <0> d          47.493  49.848  46.540  0.00  0.00    -0.046 C 
ATOM      9  C8  <0> d          47.275  51.280  46.715  0.00  0.00     0.004 C 
ATOM     10  C9  <0> d          46.464  51.955  45.918  0.00  0.00    -0.021 C 
ATOM     11  C10 <0> d          45.747  51.341  44.751  0.00  0.00     0.018 C 
ATOM     12  C11 <0> d          46.307  49.987  44.353  0.00  0.00     0.006 C 
ATOM     13  C12 <0> d          45.474  49.252  43.315  0.00  0.00     0.007 C 
ATOM     14  C13 <0> d          43.959  49.324  43.513  0.00  0.00     0.013 C 
ATOM     15  C14 <0> d          43.540  50.757  43.740  0.00  0.00    -0.009 C 
ATOM     16  C15 <0> d          44.262  51.277  45.004  0.00  0.00     0.005 C 
ATOM     17  C16 <0> d          43.562  52.625  45.235  0.00  0.00     0.009 C 
ATOM     18  C17 <0> d          42.077  52.314  44.913  0.00  0.00     0.039 C 
ATOM     19  C18 <0> d          42.067  51.016  44.066  0.00  0.00     0.066 C 
ATOM     20  C22 <0> d          43.898  51.597  42.508  0.00  0.00     0.019 C 
ATOM     21  C19 <0> d          41.452  49.871  44.862  0.00  0.00     0.049 C 
ATOM     22  C20 <0> d          40.769  50.427  46.112  0.00  0.00     0.116 C 
ATOM     23  C21 <0> d          39.610  49.540  46.490  0.00  0.00     0.172 C 
ATOM     24  O2  <0> d          38.521  49.726  46.000  0.00  0.00    -0.648 OA
ATOM     25  O4  <0> d          39.788  48.543  47.370  0.00  0.00    -0.648 OA
ATOM     26  O3  <0> d          41.336  51.228  42.855  0.00  0.00    -0.389 OA
ATOM     27  H26 <0> d          40.689  51.946  42.906  0.00  0.00     0.210 HD
ENDMDL
