MODEL 1
REMARK VINA RESULT:      -8.9      0.000      0.000
ATOM      1  C8  <0> d          51.361  49.959  40.950  0.00  0.00     0.253 C 
ATOM      2  O1  <0> d          50.806  50.975  41.310  0.00  0.00    -0.271 OA
ATOM      3  N1  <0> d          51.422  48.895  41.776  0.00  0.00    -0.344 N 
ATOM      4  H9  <0> d          51.866  48.082  41.488  0.00  0.00     0.163 HD
ATOM      5  C9  <0> d          50.819  48.968  43.110  0.00  0.00     0.200 C 
ATOM      6  C15 <0> d          51.110  47.775  43.980  0.00  0.00     0.250 C 
ATOM      7  N2  <0> d          49.835  47.608  44.280  0.00  0.00    -0.302 N 
ATOM      8  O2  <0> d          52.127  47.192  44.288  0.00  0.00    -0.271 OA
ATOM      9  C10 <0> d          49.387  48.480  43.166  0.00  0.00     0.125 C 
ATOM     10  C14 <0> d          48.987  47.005  45.237  0.00  0.00     0.133 C 
ATOM     11  C11 <0> d          48.357  49.448  43.770  0.00  0.00     0.034 C 
ATOM     12  C12 <0> d          47.245  48.616  44.415  0.00  0.00     0.056 C 
ATOM     13  C13 <0> d          47.746  47.518  45.299  0.00  0.00     0.045 C 
ATOM     14 Cl1  <0> d          46.651  46.857  46.472  0.00  0.00    -0.086 Cl
ATOM     15  C16 <0> d          49.429  45.900  46.100  0.00  0.00     0.228 C 
ATOM     16  O3  <0> d          49.919  46.136  47.187  0.00  0.00    -0.643 OA
ATOM     17  O4  <0> d          49.289  44.625  45.688  0.00  0.00    -0.643 OA
ATOM     18  C7  <0> d          51.981  49.884  39.578  0.00  0.00     0.307 C 
ATOM     19  C4  <0> d          52.365  51.269  39.125  0.00  0.00    -0.019 A 
ATOM     20  C3  <0> d          51.620  51.909  38.152  0.00  0.00     0.010 A 
ATOM     21  C2  <0> d          51.973  53.180  37.737  0.00  0.00     0.001 A 
ATOM     22  C1  <0> d          53.069  53.811  38.295  0.00  0.00     0.000 A 
ATOM     23  C6  <0> d          53.812  53.171  39.269  0.00  0.00     0.001 A 
ATOM     24  C5  <0> d          53.457  51.901  39.687  0.00  0.00     0.010 A 
ATOM     25  N3  <0> d          51.027  49.312  38.613  0.00  0.00    -0.062 N 
ATOM     26  H14 <0> d          51.096  49.802  37.722  0.00  0.00     0.275 HD
ATOM     27  H15 <0> d          51.222  48.322  38.472  0.00  0.00     0.275 HD
ATOM     28  H16 <0> d          50.074  49.416  38.979  0.00  0.00     0.275 HD
ENDMDL
MODEL 2
REMARK VINA RESULT:      -8.7      3.150      3.670
ATOM      1  C8  <0> d          51.585  46.624  40.541  0.00  0.00     0.253 C 
ATOM      2  O1  <0> d          52.568  47.169  40.995  0.00  0.00    -0.271 OA
ATOM      3  N1  <0> d          50.399  46.739  41.171  0.00  0.00    -0.344 N 
ATOM      4  H9  <0> d          49.613  46.302  40.808  0.00  0.00     0.163 HD
ATOM      5  C9  <0> d          50.298  47.522  42.406  0.00  0.00     0.200 C 
ATOM      6  C15 <0> d          50.204  46.687  43.655  0.00  0.00     0.250 C 
ATOM      7  N2  <0> d          49.145  47.345  44.087  0.00  0.00    -0.302 N 
ATOM      8  O2  <0> d          50.855  45.763  44.095  0.00  0.00    -0.271 OA
ATOM      9  C10 <0> d          48.887  47.944  42.754  0.00  0.00     0.125 C 
ATOM     10  C14 <0> d          48.412  47.624  45.263  0.00  0.00     0.133 C 
ATOM     11  C11 <0> d          48.661  49.445  42.997  0.00  0.00     0.034 C 
ATOM     12  C12 <0> d          47.512  49.597  43.996  0.00  0.00     0.056 C 
ATOM     13  C13 <0> d          47.642  48.725  45.205  0.00  0.00     0.045 C 
ATOM     14 Cl1  <0> d          46.734  49.157  46.620  0.00  0.00    -0.086 Cl
ATOM     15  C16 <0> d          48.483  46.773  46.460  0.00  0.00     0.228 C 
ATOM     16  O3  <0> d          47.744  45.813  46.569  0.00  0.00    -0.643 OA
ATOM     17  O4  <0> d          49.369  47.054  47.435  0.00  0.00    -0.643 OA
ATOM     18  C7  <0> d          51.689  45.819  39.271  0.00  0.00     0.307 C 
ATOM     19  C4  <0> d          51.128  46.618  38.124  0.00  0.00    -0.019 A 
ATOM     20  C3  <0> d          49.842  46.377  37.676  0.00  0.00     0.010 A 
ATOM     21  C2  <0> d          49.328  47.110  36.623  0.00  0.00     0.001 A 
ATOM     22  C1  <0> d          50.099  48.085  36.019  0.00  0.00     0.000 A 
ATOM     23  C6  <0> d          51.384  48.327  36.467  0.00  0.00     0.001 A 
ATOM     24  C5  <0> d          51.897  47.596  37.523  0.00  0.00     0.010 A 
ATOM     25  N3  <0> d          50.931  44.562  39.396  0.00  0.00    -0.062 N 
ATOM     26  H14 <0> d          51.349  43.972  40.115  0.00  0.00     0.275 HD
ATOM     27  H15 <0> d          49.963  44.759  39.640  0.00  0.00     0.275 HD
ATOM     28  H16 <0> d          50.956  44.064  38.499  0.00  0.00     0.275 HD
ENDMDL
MODEL 3
REMARK VINA RESULT:      -8.6      2.260      3.041
ATOM      1  C8  <0> d          51.061  49.580  38.511  0.00  0.00     0.253 C 
ATOM      2  O1  <0> d          51.810  48.721  38.098  0.00  0.00    -0.271 OA
ATOM      3  N1  <0> d          50.445  49.421  39.700  0.00  0.00    -0.344 N 
ATOM      4  H9  <0> d          49.845  50.108  40.031  0.00  0.00     0.163 HD
ATOM      5  C9  <0> d          50.679  48.210  40.491  0.00  0.00     0.200 C 
ATOM      6  C15 <0> d          49.429  47.604  41.070  0.00  0.00     0.250 C 
ATOM      7  N2  <0> d          49.948  47.542  42.282  0.00  0.00    -0.302 N 
ATOM      8  O2  <0> d          48.355  47.293  40.601  0.00  0.00    -0.271 OA
ATOM      9  C10 <0> d          51.046  48.479  41.935  0.00  0.00     0.125 C 
ATOM     10  C14 <0> d          49.798  46.885  43.524  0.00  0.00     0.133 C 
ATOM     11  C11 <0> d          52.341  47.827  42.446  0.00  0.00     0.034 C 
ATOM     12  C12 <0> d          52.180  47.562  43.945  0.00  0.00     0.056 C 
ATOM     13  C13 <0> d          50.892  46.890  44.306  0.00  0.00     0.045 C 
ATOM     14 Cl1  <0> d          50.803  46.075  45.835  0.00  0.00    -0.086 Cl
ATOM     15  C16 <0> d          48.539  46.243  43.933  0.00  0.00     0.228 C 
ATOM     16  O3  <0> d          47.752  46.844  44.638  0.00  0.00    -0.643 OA
ATOM     17  O4  <0> d          48.257  44.991  43.524  0.00  0.00    -0.643 OA
ATOM     18  C7  <0> d          50.820  50.825  37.698  0.00  0.00     0.307 C 
ATOM     19  C4  <0> d          51.830  51.876  38.078  0.00  0.00    -0.019 A 
ATOM     20  C3  <0> d          52.712  51.643  39.118  0.00  0.00     0.010 A 
ATOM     21  C2  <0> d          53.639  52.608  39.466  0.00  0.00     0.001 A 
ATOM     22  C1  <0> d          53.685  53.804  38.775  0.00  0.00     0.000 A 
ATOM     23  C6  <0> d          52.804  54.036  37.736  0.00  0.00     0.001 A 
ATOM     24  C5  <0> d          51.880  53.069  37.384  0.00  0.00     0.010 A 
ATOM     25  N3  <0> d          49.466  51.349  37.948  0.00  0.00    -0.062 N 
ATOM     26  H14 <0> d          49.442  52.352  37.768  0.00  0.00     0.275 HD
ATOM     27  H15 <0> d          48.792  50.880  37.346  0.00  0.00     0.275 HD
ATOM     28  H16 <0> d          49.215  51.178  38.928  0.00  0.00     0.275 HD
ENDMDL
MODEL 4
REMARK VINA RESULT:      -8.5      1.566      1.731
ATOM      1  C8  <0> d          51.740  48.238  40.354  0.00  0.00     0.253 C 
ATOM      2  O1  <0> d          52.714  47.812  40.937  0.00  0.00    -0.271 OA
ATOM      3  N1  <0> d          50.566  48.362  41.006  0.00  0.00    -0.344 N 
ATOM      4  H9  <0> d          49.786  48.702  40.541  0.00  0.00     0.163 HD
ATOM      5  C9  <0> d          50.468  47.980  42.418  0.00  0.00     0.200 C 
ATOM      6  C15 <0> d          50.103  46.537  42.639  0.00  0.00     0.250 C 
ATOM      7  N2  <0> d          49.130  46.848  43.475  0.00  0.00    -0.302 N 
ATOM      8  O2  <0> d          50.538  45.488  42.212  0.00  0.00    -0.271 OA
ATOM      9  C10 <0> d          49.119  48.268  43.042  0.00  0.00     0.125 C 
ATOM     10  C14 <0> d          48.333  46.304  44.507  0.00  0.00     0.133 C 
ATOM     11  C11 <0> d          49.124  49.107  44.329  0.00  0.00     0.034 C 
ATOM     12  C12 <0> d          47.918  48.690  45.174  0.00  0.00     0.056 C 
ATOM     13  C13 <0> d          47.770  47.209  45.328  0.00  0.00     0.045 C 
ATOM     14 Cl1  <0> d          46.803  46.622  46.644  0.00  0.00    -0.086 Cl
ATOM     15  C16 <0> d          48.133  44.857  44.672  0.00  0.00     0.228 C 
ATOM     16  O3  <0> d          48.842  44.228  45.434  0.00  0.00    -0.643 OA
ATOM     17  O4  <0> d          47.164  44.227  43.981  0.00  0.00    -0.643 OA
ATOM     18  C7  <0> d          51.840  48.630  38.903  0.00  0.00     0.307 C 
ATOM     19  C4  <0> d          52.136  50.103  38.801  0.00  0.00    -0.019 A 
ATOM     20  C3  <0> d          51.509  50.870  37.836  0.00  0.00     0.010 A 
ATOM     21  C2  <0> d          51.780  52.222  37.743  0.00  0.00     0.001 A 
ATOM     22  C1  <0> d          52.678  52.808  38.616  0.00  0.00     0.000 A 
ATOM     23  C6  <0> d          53.305  52.042  39.581  0.00  0.00     0.001 A 
ATOM     24  C5  <0> d          53.030  50.690  39.676  0.00  0.00     0.010 A 
ATOM     25  N3  <0> d          50.575  48.345  38.204  0.00  0.00    -0.062 N 
ATOM     26  H14 <0> d          50.712  48.409  37.196  0.00  0.00     0.275 HD
ATOM     27  H15 <0> d          50.245  47.412  38.443  0.00  0.00     0.275 HD
ATOM     28  H16 <0> d          49.870  49.034  38.491  0.00  0.00     0.275 HD
ENDMDL
MODEL 5
REMARK VINA RESULT:      -8.3      4.016      8.045
ATOM      1  C8  <0> d          49.601  48.159  45.155  0.00  0.00     0.253 C 
ATOM      2  O1  <0> d          50.675  48.722  45.169  0.00  0.00    -0.271 OA
ATOM      3  N1  <0> d          48.939  47.999  43.991  0.00  0.00    -0.344 N 
ATOM      4  H9  <0> d          48.080  47.549  43.980  0.00  0.00     0.163 HD
ATOM      5  C9  <0> d          49.517  48.507  42.744  0.00  0.00     0.200 C 
ATOM      6  C15 <0> d          48.628  48.337  41.542  0.00  0.00     0.250 C 
ATOM      7  N2  <0> d          49.591  47.778  40.834  0.00  0.00    -0.302 N 
ATOM      8  O2  <0> d          47.469  48.610  41.313  0.00  0.00    -0.271 OA
ATOM      9  C10 <0> d          50.421  47.519  42.037  0.00  0.00     0.125 C 
ATOM     10  C14 <0> d          49.976  47.502  39.502  0.00  0.00     0.133 C 
ATOM     11  C11 <0> d          51.836  48.010  41.692  0.00  0.00     0.034 C 
ATOM     12  C12 <0> d          52.299  47.278  40.431  0.00  0.00     0.056 C 
ATOM     13  C13 <0> d          51.290  47.280  39.325  0.00  0.00     0.045 C 
ATOM     14 Cl1  <0> d          51.852  46.968  37.713  0.00  0.00    -0.086 Cl
ATOM     15  C16 <0> d          49.012  47.459  38.393  0.00  0.00     0.228 C 
ATOM     16  O3  <0> d          48.414  46.430  38.146  0.00  0.00    -0.643 OA
ATOM     17  O4  <0> d          48.790  48.561  37.650  0.00  0.00    -0.643 OA
ATOM     18  C7  <0> d          49.007  47.637  46.438  0.00  0.00     0.307 C 
ATOM     19  C4  <0> d          48.265  46.355  46.161  0.00  0.00    -0.019 A 
ATOM     20  C3  <0> d          46.886  46.322  46.243  0.00  0.00     0.010 A 
ATOM     21  C2  <0> d          46.206  45.145  45.990  0.00  0.00     0.001 A 
ATOM     22  C1  <0> d          46.906  44.002  45.653  0.00  0.00     0.000 A 
ATOM     23  C6  <0> d          48.285  44.035  45.570  0.00  0.00     0.001 A 
ATOM     24  C5  <0> d          48.965  45.213  45.820  0.00  0.00     0.010 A 
ATOM     25  N3  <0> d          48.069  48.620  47.007  0.00  0.00    -0.062 N 
ATOM     26  H14 <0> d          47.468  48.994  46.274  0.00  0.00     0.275 HD
ATOM     27  H15 <0> d          47.494  48.180  47.724  0.00  0.00     0.275 HD
ATOM     28  H16 <0> d          48.601  49.388  47.429  0.00  0.00     0.275 HD
ENDMDL
MODEL 6
REMARK VINA RESULT:      -8.3      3.803      4.872
ATOM      1  C8  <0> d          49.768  47.601  39.968  0.00  0.00     0.253 C 
ATOM      2  O1  <0> d          48.620  47.257  39.780  0.00  0.00    -0.271 OA
ATOM      3  N1  <0> d          50.046  48.551  40.883  0.00  0.00    -0.344 N 
ATOM      4  H9  <0> d          50.964  48.826  41.034  0.00  0.00     0.163 HD
ATOM      5  C9  <0> d          48.960  49.170  41.649  0.00  0.00     0.200 C 
ATOM      6  C15 <0> d          49.136  50.647  41.876  0.00  0.00     0.250 C 
ATOM      7  N2  <0> d          48.921  50.534  43.173  0.00  0.00    -0.302 N 
ATOM      8  O2  <0> d          49.381  51.584  41.145  0.00  0.00    -0.271 OA
ATOM      9  C10 <0> d          49.127  49.065  43.149  0.00  0.00     0.125 C 
ATOM     10  C14 <0> d          48.545  51.287  44.309  0.00  0.00     0.133 C 
ATOM     11  C11 <0> d          47.950  48.456  43.928  0.00  0.00     0.034 C 
ATOM     12  C12 <0> d          47.936  49.074  45.328  0.00  0.00     0.056 C 
ATOM     13  C13 <0> d          48.056  50.566  45.333  0.00  0.00     0.045 C 
ATOM     14 Cl1  <0> d          47.538  51.418  46.753  0.00  0.00    -0.086 Cl
ATOM     15  C16 <0> d          48.680  52.750  44.368  0.00  0.00     0.228 C 
ATOM     16  O3  <0> d          49.761  53.252  44.606  0.00  0.00    -0.643 OA
ATOM     17  O4  <0> d          47.606  53.535  44.156  0.00  0.00    -0.643 OA
ATOM     18  C7  <0> d          50.884  46.964  39.181  0.00  0.00     0.307 C 
ATOM     19  C4  <0> d          50.812  47.422  37.747  0.00  0.00    -0.019 A 
ATOM     20  C3  <0> d          50.067  46.706  36.829  0.00  0.00     0.010 A 
ATOM     21  C2  <0> d          50.001  47.128  35.514  0.00  0.00     0.001 A 
ATOM     22  C1  <0> d          50.679  48.265  35.117  0.00  0.00     0.000 A 
ATOM     23  C6  <0> d          51.423  48.982  36.036  0.00  0.00     0.001 A 
ATOM     24  C5  <0> d          51.486  48.562  37.353  0.00  0.00     0.010 A 
ATOM     25  N3  <0> d          50.769  45.496  39.220  0.00  0.00    -0.062 N 
ATOM     26  H14 <0> d          49.814  45.215  39.004  0.00  0.00     0.275 HD
ATOM     27  H15 <0> d          51.407  45.076  38.547  0.00  0.00     0.275 HD
ATOM     28  H16 <0> d          51.010  45.165  40.161  0.00  0.00     0.275 HD
ENDMDL
MODEL 7
REMARK VINA RESULT:      -8.2      2.850      3.466
ATOM      1  C8  <0> d          51.437  49.839  40.365  0.00  0.00     0.253 C 
ATOM      2  O1  <0> d          52.028  49.177  41.192  0.00  0.00    -0.271 OA
ATOM      3  N1  <0> d          50.272  50.436  40.688  0.00  0.00    -0.344 N 
ATOM      4  H9  <0> d          49.799  50.966  40.027  0.00  0.00     0.163 HD
ATOM      5  C9  <0> d          49.719  50.284  42.037  0.00  0.00     0.200 C 
ATOM      6  C15 <0> d          48.578  49.307  42.125  0.00  0.00     0.250 C 
ATOM      7  N2  <0> d          47.811  50.169  42.766  0.00  0.00    -0.302 N 
ATOM      8  O2  <0> d          48.423  48.164  41.750  0.00  0.00    -0.271 OA
ATOM      9  C10 <0> d          48.674  51.318  42.395  0.00  0.00     0.125 C 
ATOM     10  C14 <0> d          46.672  50.240  43.600  0.00  0.00     0.133 C 
ATOM     11  C11 <0> d          48.910  52.110  43.691  0.00  0.00     0.034 C 
ATOM     12  C12 <0> d          47.545  52.499  44.266  0.00  0.00     0.056 C 
ATOM     13  C13 <0> d          46.571  51.365  44.329  0.00  0.00     0.045 C 
ATOM     14 Cl1  <0> d          45.218  51.516  45.406  0.00  0.00    -0.086 Cl
ATOM     15  C16 <0> d          45.672  49.164  43.665  0.00  0.00     0.228 C 
ATOM     16  O3  <0> d          44.737  49.155  42.888  0.00  0.00    -0.643 OA
ATOM     17  O4  <0> d          45.792  48.187  44.585  0.00  0.00    -0.643 OA
ATOM     18  C7  <0> d          52.005  49.996  38.978  0.00  0.00     0.307 C 
ATOM     19  C4  <0> d          52.485  51.411  38.790  0.00  0.00    -0.019 A 
ATOM     20  C3  <0> d          53.558  51.881  39.524  0.00  0.00     0.010 A 
ATOM     21  C2  <0> d          53.998  53.180  39.351  0.00  0.00     0.001 A 
ATOM     22  C1  <0> d          53.366  54.009  38.444  0.00  0.00     0.000 A 
ATOM     23  C6  <0> d          52.293  53.539  37.709  0.00  0.00     0.001 A 
ATOM     24  C5  <0> d          51.856  52.238  37.879  0.00  0.00     0.010 A 
ATOM     25  N3  <0> d          50.977  49.699  37.965  0.00  0.00    -0.062 N 
ATOM     26  H14 <0> d          50.979  48.703  37.748  0.00  0.00     0.275 HD
ATOM     27  H15 <0> d          50.058  49.970  38.309  0.00  0.00     0.275 HD
ATOM     28  H16 <0> d          51.185  50.228  37.110  0.00  0.00     0.275 HD
ENDMDL
MODEL 8
REMARK VINA RESULT:      -8.2      3.301      8.167
ATOM      1  C8  <0> d          50.572  47.150  45.056  0.00  0.00     0.253 C 
ATOM      2  O1  <0> d          51.671  46.648  45.160  0.00  0.00    -0.271 OA
ATOM      3  N1  <0> d          50.192  47.703  43.886  0.00  0.00    -0.344 N 
ATOM      4  H9  <0> d          49.314  48.105  43.802  0.00  0.00     0.163 HD
ATOM      5  C9  <0> d          51.108  47.699  42.742  0.00  0.00     0.200 C 
ATOM      6  C15 <0> d          50.972  48.898  41.842  0.00  0.00     0.250 C 
ATOM      7  N2  <0> d          50.877  48.150  40.759  0.00  0.00    -0.302 N 
ATOM      8  O2  <0> d          50.955  50.094  42.039  0.00  0.00    -0.271 OA
ATOM      9  C10 <0> d          50.596  46.923  41.547  0.00  0.00     0.125 C 
ATOM     10  C14 <0> d          51.026  48.201  39.355  0.00  0.00     0.133 C 
ATOM     11  C11 <0> d          51.526  45.835  40.987  0.00  0.00     0.034 C 
ATOM     12  C12 <0> d          51.255  45.704  39.486  0.00  0.00     0.056 C 
ATOM     13  C13 <0> d          51.225  47.012  38.760  0.00  0.00     0.045 C 
ATOM     14 Cl1  <0> d          51.452  46.991  37.040  0.00  0.00    -0.086 Cl
ATOM     15  C16 <0> d          50.967  49.462  38.599  0.00  0.00     0.228 C 
ATOM     16  O3  <0> d          51.972  50.130  38.451  0.00  0.00    -0.643 OA
ATOM     17  O4  <0> d          49.800  49.876  38.069  0.00  0.00    -0.643 OA
ATOM     18  C7  <0> d          49.631  47.155  46.232  0.00  0.00     0.307 C 
ATOM     19  C4  <0> d          48.572  46.102  46.031  0.00  0.00    -0.019 A 
ATOM     20  C3  <0> d          48.934  44.816  45.677  0.00  0.00     0.010 A 
ATOM     21  C2  <0> d          47.962  43.850  45.493  0.00  0.00     0.001 A 
ATOM     22  C1  <0> d          46.628  44.171  45.663  0.00  0.00     0.000 A 
ATOM     23  C6  <0> d          46.266  45.457  46.019  0.00  0.00     0.001 A 
ATOM     24  C5  <0> d          47.239  46.421  46.207  0.00  0.00     0.010 A 
ATOM     25  N3  <0> d          48.980  48.470  46.365  0.00  0.00    -0.062 N 
ATOM     26  H14 <0> d          49.347  49.113  45.665  0.00  0.00     0.275 HD
ATOM     27  H15 <0> d          47.974  48.376  46.245  0.00  0.00     0.275 HD
ATOM     28  H16 <0> d          49.172  48.848  47.300  0.00  0.00     0.275 HD
ENDMDL
MODEL 9
REMARK VINA RESULT:      -8.1      3.185      4.118
ATOM      1  C8  <0> d          51.060  49.597  39.224  0.00  0.00     0.253 C 
ATOM      2  O1  <0> d          51.285  48.560  39.813  0.00  0.00    -0.271 OA
ATOM      3  N1  <0> d          50.052  50.396  39.630  0.00  0.00    -0.344 N 
ATOM      4  H9  <0> d          49.871  51.225  39.160  0.00  0.00     0.163 HD
ATOM      5  C9  <0> d          49.229  50.011  40.780  0.00  0.00     0.200 C 
ATOM      6  C15 <0> d          48.280  51.084  41.241  0.00  0.00     0.250 C 
ATOM      7  N2  <0> d          48.676  50.980  42.495  0.00  0.00    -0.302 N 
ATOM      8  O2  <0> d          47.462  51.778  40.675  0.00  0.00    -0.271 OA
ATOM      9  C10 <0> d          49.900  50.230  42.119  0.00  0.00     0.125 C 
ATOM     10  C14 <0> d          48.271  51.269  43.818  0.00  0.00     0.133 C 
ATOM     11  C11 <0> d          49.964  49.016  43.060  0.00  0.00     0.034 C 
ATOM     12  C12 <0> d          49.951  49.532  44.501  0.00  0.00     0.056 C 
ATOM     13  C13 <0> d          48.885  50.547  44.772  0.00  0.00     0.045 C 
ATOM     14 Cl1  <0> d          48.420  50.816  46.422  0.00  0.00    -0.086 Cl
ATOM     15  C16 <0> d          47.253  52.284  44.129  0.00  0.00     0.228 C 
ATOM     16  O3  <0> d          47.573  53.452  44.240  0.00  0.00    -0.643 OA
ATOM     17  O4  <0> d          45.966  51.921  44.291  0.00  0.00    -0.643 OA
ATOM     18  C7  <0> d          51.906  49.992  38.042  0.00  0.00     0.307 C 
ATOM     19  C4  <0> d          52.428  51.391  38.245  0.00  0.00    -0.019 A 
ATOM     20  C3  <0> d          53.380  51.639  39.217  0.00  0.00     0.010 A 
ATOM     21  C2  <0> d          53.859  52.923  39.403  0.00  0.00     0.001 A 
ATOM     22  C1  <0> d          53.388  53.957  38.616  0.00  0.00     0.000 A 
ATOM     23  C6  <0> d          52.437  53.708  37.644  0.00  0.00     0.001 A 
ATOM     24  C5  <0> d          51.961  52.423  37.455  0.00  0.00     0.010 A 
ATOM     25  N3  <0> d          51.110  49.953  36.804  0.00  0.00    -0.062 N 
ATOM     26  H14 <0> d          51.146  49.020  36.395  0.00  0.00     0.275 HD
ATOM     27  H15 <0> d          50.142  50.198  37.002  0.00  0.00     0.275 HD
ATOM     28  H16 <0> d          51.496  50.627  36.133  0.00  0.00     0.275 HD
ENDMDL
MODEL 10
REMARK VINA RESULT:      -8.1      3.808      8.079
ATOM      1  C8  <0> d          52.206  47.573  42.803  0.00  0.00     0.253 C 
ATOM      2  O1  <0> d          53.165  46.876  42.547  0.00  0.00    -0.271 OA
ATOM      3  N1  <0> d          51.533  48.184  41.807  0.00  0.00    -0.344 N 
ATOM      4  H9  <0> d          50.766  48.742  42.011  0.00  0.00     0.163 HD
ATOM      5  C9  <0> d          51.962  48.009  40.417  0.00  0.00     0.200 C 
ATOM      6  C15 <0> d          51.819  49.245  39.570  0.00  0.00     0.250 C 
ATOM      7  N2  <0> d          51.173  48.593  38.622  0.00  0.00    -0.302 N 
ATOM      8  O2  <0> d          52.167  50.398  39.708  0.00  0.00    -0.271 OA
ATOM      9  C10 <0> d          50.893  47.438  39.510  0.00  0.00     0.125 C 
ATOM     10  C14 <0> d          50.831  48.671  37.253  0.00  0.00     0.133 C 
ATOM     11  C11 <0> d          51.272  46.182  38.709  0.00  0.00     0.034 C 
ATOM     12  C12 <0> d          50.472  46.190  37.405  0.00  0.00     0.056 C 
ATOM     13  C13 <0> d          50.513  47.498  36.678  0.00  0.00     0.045 C 
ATOM     14 Cl1  <0> d          50.114  47.502  34.989  0.00  0.00    -0.086 Cl
ATOM     15  C16 <0> d          50.824  49.941  36.511  0.00  0.00     0.228 C 
ATOM     16  O3  <0> d          49.796  50.583  36.415  0.00  0.00    -0.643 OA
ATOM     17  O4  <0> d          51.956  50.395  35.939  0.00  0.00    -0.643 OA
ATOM     18  C7  <0> d          51.765  47.754  44.233  0.00  0.00     0.307 C 
ATOM     19  C4  <0> d          50.649  46.790  44.539  0.00  0.00    -0.019 A 
ATOM     20  C3  <0> d          49.975  46.161  43.508  0.00  0.00     0.010 A 
ATOM     21  C2  <0> d          48.951  45.276  43.789  0.00  0.00     0.001 A 
ATOM     22  C1  <0> d          48.601  45.019  45.101  0.00  0.00     0.000 A 
ATOM     23  C6  <0> d          49.274  45.647  46.132  0.00  0.00     0.001 A 
ATOM     24  C5  <0> d          50.302  46.529  45.851  0.00  0.00     0.010 A 
ATOM     25  N3  <0> d          51.284  49.129  44.453  0.00  0.00    -0.062 N 
ATOM     26  H14 <0> d          50.432  49.290  43.917  0.00  0.00     0.275 HD
ATOM     27  H15 <0> d          51.097  49.280  45.442  0.00  0.00     0.275 HD
ATOM     28  H16 <0> d          52.004  49.791  44.143  0.00  0.00     0.275 HD
ENDMDL
MODEL 1
REMARK VINA RESULT:      -9.0      0.000      0.000
ATOM      1  C8  <0> d          51.408  49.999  40.970  0.00  0.00     0.253 C 
ATOM      2  O1  <0> d          50.846  51.018  41.312  0.00  0.00    -0.271 OA
ATOM      3  N1  <0> d          51.458  48.945  41.808  0.00  0.00    -0.344 N 
ATOM      4  H9  <0> d          51.907  48.129  41.536  0.00  0.00     0.163 HD
ATOM      5  C9  <0> d          50.838  49.030  43.133  0.00  0.00     0.200 C 
ATOM      6  C15 <0> d          51.132  47.854  44.025  0.00  0.00     0.250 C 
ATOM      7  N2  <0> d          49.855  47.676  44.311  0.00  0.00    -0.302 N 
ATOM      8  O2  <0> d          52.152  47.288  44.355  0.00  0.00    -0.271 OA
ATOM      9  C10 <0> d          49.411  48.525  43.179  0.00  0.00     0.125 C 
ATOM     10  C14 <0> d          49.002  47.078  45.267  0.00  0.00     0.133 C 
ATOM     11  C11 <0> d          48.361  49.490  43.755  0.00  0.00     0.034 C 
ATOM     12  C12 <0> d          47.251  48.655  44.397  0.00  0.00     0.056 C 
ATOM     13  C13 <0> d          47.755  47.576  45.304  0.00  0.00     0.045 C 
ATOM     14 Cl1  <0> d          46.652  46.920  46.474  0.00  0.00    -0.086 Cl
ATOM     15  C16 <0> d          49.446  45.991  46.153  0.00  0.00     0.228 C 
ATOM     16  O3  <0> d          49.948  46.249  47.229  0.00  0.00    -0.643 OA
ATOM     17  O4  <0> d          49.292  44.707  45.771  0.00  0.00    -0.643 OA
ATOM     18  C7  <0> d          52.046  49.911  39.608  0.00  0.00     0.307 C 
ATOM     19  C4  <0> d          52.447  51.290  39.152  0.00  0.00    -0.019 A 
ATOM     20  C3  <0> d          53.589  51.881  39.658  0.00  0.00     0.010 A 
ATOM     21  C2  <0> d          53.956  53.147  39.239  0.00  0.00     0.001 A 
ATOM     22  C1  <0> d          53.183  53.820  38.314  0.00  0.00     0.000 A 
ATOM     23  C6  <0> d          52.041  53.228  37.806  0.00  0.00     0.001 A 
ATOM     24  C5  <0> d          51.676  51.961  38.222  0.00  0.00     0.010 A 
ATOM     25  N3  <0> d          51.101  49.340  38.633  0.00  0.00    -0.062 N 
ATOM     26  H14 <0> d          50.753  50.071  38.015  0.00  0.00     0.275 HD
ATOM     27  H15 <0> d          51.562  48.620  38.080  0.00  0.00     0.275 HD
ATOM     28  H16 <0> d          50.310  48.922  39.135  0.00  0.00     0.275 HD
ENDMDL
MODEL 2
REMARK VINA RESULT:      -8.6      2.255      2.970
ATOM      1  C8  <0> d          50.678  49.690  38.834  0.00  0.00     0.253 C 
ATOM      2  O1  <0> d          51.314  48.798  38.315  0.00  0.00    -0.271 OA
ATOM      3  N1  <0> d          50.248  49.560  40.104  0.00  0.00    -0.344 N 
ATOM      4  H9  <0> d          49.740  50.274  40.520  0.00  0.00     0.163 HD
ATOM      5  C9  <0> d          50.545  48.338  40.858  0.00  0.00     0.200 C 
ATOM      6  C15 <0> d          49.324  47.580  41.303  0.00  0.00     0.250 C 
ATOM      7  N2  <0> d          49.751  47.507  42.550  0.00  0.00    -0.302 N 
ATOM      8  O2  <0> d          48.329  47.187  40.732  0.00  0.00    -0.271 OA
ATOM      9  C10 <0> d          50.767  48.567  42.338  0.00  0.00     0.125 C 
ATOM     10  C14 <0> d          49.574  46.773  43.745  0.00  0.00     0.133 C 
ATOM     11  C11 <0> d          52.080  48.022  42.926  0.00  0.00     0.034 C 
ATOM     12  C12 <0> d          51.831  47.664  44.392  0.00  0.00     0.056 C 
ATOM     13  C13 <0> d          50.596  46.848  44.614  0.00  0.00     0.045 C 
ATOM     14 Cl1  <0> d          50.474  45.947  46.093  0.00  0.00    -0.086 Cl
ATOM     15  C16 <0> d          48.361  45.987  44.018  0.00  0.00     0.228 C 
ATOM     16  O3  <0> d          48.237  44.875  43.544  0.00  0.00    -0.643 OA
ATOM     17  O4  <0> d          47.388  46.500  44.798  0.00  0.00    -0.643 OA
ATOM     18  C7  <0> d          50.373  50.946  38.059  0.00  0.00     0.307 C 
ATOM     19  C4  <0> d          51.490  51.939  38.254  0.00  0.00    -0.019 A 
ATOM     20  C3  <0> d          51.557  53.069  37.461  0.00  0.00     0.010 A 
ATOM     21  C2  <0> d          52.583  53.980  37.641  0.00  0.00     0.001 A 
ATOM     22  C1  <0> d          53.539  53.761  38.613  0.00  0.00     0.000 A 
ATOM     23  C6  <0> d          53.471  52.631  39.408  0.00  0.00     0.001 A 
ATOM     24  C5  <0> d          52.443  51.723  39.232  0.00  0.00     0.010 A 
ATOM     25  N3  <0> d          49.112  51.547  38.528  0.00  0.00    -0.062 N 
ATOM     26  H14 <0> d          48.323  51.120  38.047  0.00  0.00     0.275 HD
ATOM     27  H15 <0> d          49.012  51.409  39.532  0.00  0.00     0.275 HD
ATOM     28  H16 <0> d          49.123  52.553  38.327  0.00  0.00     0.275 HD
ENDMDL
MODEL 3
REMARK VINA RESULT:      -8.5      2.865      3.570
ATOM      1  C8  <0> d          51.607  46.898  40.609  0.00  0.00     0.253 C 
ATOM      2  O1  <0> d          52.668  47.219  41.103  0.00  0.00    -0.271 OA
ATOM      3  N1  <0> d          50.459  47.122  41.278  0.00  0.00    -0.344 N 
ATOM      4  H9  <0> d          49.610  46.865  40.884  0.00  0.00     0.163 HD
ATOM      5  C9  <0> d          50.491  47.750  42.601  0.00  0.00     0.200 C 
ATOM      6  C15 <0> d          50.239  46.797  43.738  0.00  0.00     0.250 C 
ATOM      7  N2  <0> d          49.312  47.576  44.265  0.00  0.00    -0.302 N 
ATOM      8  O2  <0> d          50.710  45.725  44.051  0.00  0.00    -0.271 OA
ATOM      9  C10 <0> d          49.175  48.371  43.020  0.00  0.00     0.125 C 
ATOM     10  C14 <0> d          48.632  47.833  45.477  0.00  0.00     0.133 C 
ATOM     11  C11 <0> d          49.220  49.847  43.450  0.00  0.00     0.034 C 
ATOM     12  C12 <0> d          48.110  50.077  44.476  0.00  0.00     0.056 C 
ATOM     13  C13 <0> d          48.073  49.052  45.566  0.00  0.00     0.045 C 
ATOM     14 Cl1  <0> d          47.246  49.461  47.038  0.00  0.00    -0.086 Cl
ATOM     15  C16 <0> d          48.540  46.841  46.559  0.00  0.00     0.228 C 
ATOM     16  O3  <0> d          47.615  46.054  46.586  0.00  0.00    -0.643 OA
ATOM     17  O4  <0> d          49.486  46.803  47.519  0.00  0.00    -0.643 OA
ATOM     18  C7  <0> d          51.575  46.252  39.249  0.00  0.00     0.307 C 
ATOM     19  C4  <0> d          50.835  47.147  38.287  0.00  0.00    -0.019 A 
ATOM     20  C3  <0> d          49.637  46.731  37.737  0.00  0.00     0.010 A 
ATOM     21  C2  <0> d          48.959  47.553  36.855  0.00  0.00     0.001 A 
ATOM     22  C1  <0> d          49.478  48.789  36.525  0.00  0.00     0.000 A 
ATOM     23  C6  <0> d          50.675  49.206  37.076  0.00  0.00     0.001 A 
ATOM     24  C5  <0> d          51.351  48.387  37.961  0.00  0.00     0.010 A 
ATOM     25  N3  <0> d          50.890  44.949  39.313  0.00  0.00    -0.062 N 
ATOM     26  H14 <0> d          51.320  44.297  38.659  0.00  0.00     0.275 HD
ATOM     27  H15 <0> d          50.947  44.571  40.256  0.00  0.00     0.275 HD
ATOM     28  H16 <0> d          49.903  45.075  39.061  0.00  0.00     0.275 HD
ENDMDL
MODEL 4
REMARK VINA RESULT:      -8.4      2.254      2.915
ATOM      1  C8  <0> d          50.640  49.806  38.949  0.00  0.00     0.253 C 
ATOM      2  O1  <0> d          49.485  50.121  38.758  0.00  0.00    -0.271 OA
ATOM      3  N1  <0> d          50.989  49.193  40.097  0.00  0.00    -0.344 N 
ATOM      4  H9  <0> d          51.913  48.941  40.251  0.00  0.00     0.163 HD
ATOM      5  C9  <0> d          49.974  48.911  41.116  0.00  0.00     0.200 C 
ATOM      6  C15 <0> d          49.852  49.976  42.172  0.00  0.00     0.250 C 
ATOM      7  N2  <0> d          49.943  49.097  43.153  0.00  0.00    -0.302 N 
ATOM      8  O2  <0> d          49.720  51.181  42.134  0.00  0.00    -0.271 OA
ATOM      9  C10 <0> d          50.468  48.042  42.253  0.00  0.00     0.125 C 
ATOM     10  C14 <0> d          49.648  48.928  44.525  0.00  0.00     0.133 C 
ATOM     11  C11 <0> d          49.648  46.776  42.555  0.00  0.00     0.034 C 
ATOM     12  C12 <0> d          49.785  46.466  44.046  0.00  0.00     0.056 C 
ATOM     13  C13 <0> d          49.560  47.650  44.933  0.00  0.00     0.045 C 
ATOM     14 Cl1  <0> d          49.168  47.354  46.599  0.00  0.00    -0.086 Cl
ATOM     15  C16 <0> d          49.456  50.064  45.439  0.00  0.00     0.228 C 
ATOM     16  O3  <0> d          50.416  50.689  45.844  0.00  0.00    -0.643 OA
ATOM     17  O4  <0> d          48.213  50.414  45.825  0.00  0.00    -0.643 OA
ATOM     18  C7  <0> d          51.683  50.096  37.902  0.00  0.00     0.307 C 
ATOM     19  C4  <0> d          52.275  51.461  38.147  0.00  0.00    -0.019 A 
ATOM     20  C3  <0> d          51.861  52.541  37.391  0.00  0.00     0.010 A 
ATOM     21  C2  <0> d          52.404  53.792  37.617  0.00  0.00     0.001 A 
ATOM     22  C1  <0> d          53.359  53.964  38.601  0.00  0.00     0.000 A 
ATOM     23  C6  <0> d          53.772  52.883  39.359  0.00  0.00     0.001 A 
ATOM     24  C5  <0> d          53.225  51.633  39.136  0.00  0.00     0.010 A 
ATOM     25  N3  <0> d          51.084  50.070  36.556  0.00  0.00    -0.062 N 
ATOM     26  H14 <0> d          50.457  49.273  36.469  0.00  0.00     0.275 HD
ATOM     27  H15 <0> d          50.564  50.930  36.388  0.00  0.00     0.275 HD
ATOM     28  H16 <0> d          51.830  49.988  35.856  0.00  0.00     0.275 HD
ENDMDL
MODEL 5
REMARK VINA RESULT:      -8.3      3.823      5.373
ATOM      1  C8  <0> d          51.004  48.307  44.577  0.00  0.00     0.253 C 
ATOM      2  O1  <0> d          51.230  49.467  44.848  0.00  0.00    -0.271 OA
ATOM      3  N1  <0> d          49.743  47.837  44.632  0.00  0.00    -0.344 N 
ATOM      4  H9  <0> d          49.561  46.909  44.415  0.00  0.00     0.163 HD
ATOM      5  C9  <0> d          48.645  48.725  45.022  0.00  0.00     0.200 C 
ATOM      6  C15 <0> d          47.335  48.020  45.248  0.00  0.00     0.250 C 
ATOM      7  N2  <0> d          46.681  48.856  44.464  0.00  0.00    -0.302 N 
ATOM      8  O2  <0> d          47.008  47.052  45.902  0.00  0.00    -0.271 OA
ATOM      9  C10 <0> d          47.931  49.372  43.855  0.00  0.00     0.125 C 
ATOM     10  C14 <0> d          45.379  49.333  44.187  0.00  0.00     0.133 C 
ATOM     11  C11 <0> d          47.818  50.906  43.885  0.00  0.00     0.034 C 
ATOM     12  C12 <0> d          46.539  51.303  43.145  0.00  0.00     0.056 C 
ATOM     13  C13 <0> d          45.332  50.524  43.565  0.00  0.00     0.045 C 
ATOM     14 Cl1  <0> d          43.770  51.198  43.217  0.00  0.00    -0.086 Cl
ATOM     15  C16 <0> d          44.167  48.583  44.550  0.00  0.00     0.228 C 
ATOM     16  O3  <0> d          43.692  48.696  45.662  0.00  0.00    -0.643 OA
ATOM     17  O4  <0> d          43.582  47.772  43.646  0.00  0.00    -0.643 OA
ATOM     18  C7  <0> d          52.133  47.394  44.175  0.00  0.00     0.307 C 
ATOM     19  C4  <0> d          51.953  46.977  42.738  0.00  0.00    -0.019 A 
ATOM     20  C3  <0> d          52.223  47.871  41.719  0.00  0.00     0.010 A 
ATOM     21  C2  <0> d          52.058  47.487  40.400  0.00  0.00     0.001 A 
ATOM     22  C1  <0> d          51.624  46.210  40.102  0.00  0.00     0.000 A 
ATOM     23  C6  <0> d          51.356  45.315  41.121  0.00  0.00     0.001 A 
ATOM     24  C5  <0> d          51.525  45.697  42.439  0.00  0.00     0.010 A 
ATOM     25  N3  <0> d          52.149  46.190  45.024  0.00  0.00    -0.062 N 
ATOM     26  H14 <0> d          52.936  45.595  44.771  0.00  0.00     0.275 HD
ATOM     27  H15 <0> d          52.225  46.455  46.004  0.00  0.00     0.275 HD
ATOM     28  H16 <0> d          51.276  45.668  44.885  0.00  0.00     0.275 HD
ENDMDL
MODEL 6
REMARK VINA RESULT:      -8.3      3.357      8.206
ATOM      1  C8  <0> d          50.619  46.954  45.063  0.00  0.00     0.253 C 
ATOM      2  O1  <0> d          51.678  46.367  45.126  0.00  0.00    -0.271 OA
ATOM      3  N1  <0> d          50.269  47.589  43.927  0.00  0.00    -0.344 N 
ATOM      4  H9  <0> d          49.422  48.058  43.875  0.00  0.00     0.163 HD
ATOM      5  C9  <0> d          51.169  47.573  42.770  0.00  0.00     0.200 C 
ATOM      6  C15 <0> d          51.036  48.774  41.873  0.00  0.00     0.250 C 
ATOM      7  N2  <0> d          50.916  48.027  40.791  0.00  0.00    -0.302 N 
ATOM      8  O2  <0> d          51.039  49.970  42.071  0.00  0.00    -0.271 OA
ATOM      9  C10 <0> d          50.630  46.805  41.581  0.00  0.00     0.125 C 
ATOM     10  C14 <0> d          51.048  48.078  39.385  0.00  0.00     0.133 C 
ATOM     11  C11 <0> d          51.538  45.704  41.008  0.00  0.00     0.034 C 
ATOM     12  C12 <0> d          51.244  45.577  39.512  0.00  0.00     0.056 C 
ATOM     13  C13 <0> d          51.222  46.886  38.788  0.00  0.00     0.045 C 
ATOM     14 Cl1  <0> d          51.426  46.863  37.063  0.00  0.00    -0.086 Cl
ATOM     15  C16 <0> d          50.995  49.339  38.630  0.00  0.00     0.228 C 
ATOM     16  O3  <0> d          52.008  49.988  38.458  0.00  0.00    -0.643 OA
ATOM     17  O4  <0> d          49.823  49.774  38.126  0.00  0.00    -0.643 OA
ATOM     18  C7  <0> d          49.694  46.970  46.251  0.00  0.00     0.307 C 
ATOM     19  C4  <0> d          48.584  45.975  46.036  0.00  0.00    -0.019 A 
ATOM     20  C3  <0> d          47.268  46.354  46.229  0.00  0.00     0.010 A 
ATOM     21  C2  <0> d          46.250  45.439  46.031  0.00  0.00     0.001 A 
ATOM     22  C1  <0> d          46.546  44.148  45.639  0.00  0.00     0.000 A 
ATOM     23  C6  <0> d          47.862  43.770  45.445  0.00  0.00     0.001 A 
ATOM     24  C5  <0> d          48.880  44.685  45.638  0.00  0.00     0.010 A 
ATOM     25  N3  <0> d          49.108  48.310  46.430  0.00  0.00    -0.062 N 
ATOM     26  H14 <0> d          49.382  48.693  47.333  0.00  0.00     0.275 HD
ATOM     27  H15 <0> d          49.425  48.932  45.688  0.00  0.00     0.275 HD
ATOM     28  H16 <0> d          48.085  48.238  46.393  0.00  0.00     0.275 HD
ENDMDL
MODEL 7
REMARK VINA RESULT:      -8.2      3.288      3.984
ATOM      1  C8  <0> d          50.753  49.647  39.349  0.00  0.00     0.253 C 
ATOM      2  O1  <0> d          49.720  49.358  38.786  0.00  0.00    -0.271 OA
ATOM      3  N1  <0> d          50.760  49.844  40.682  0.00  0.00    -0.344 N 
ATOM      4  H9  <0> d          51.587  50.075  41.134  0.00  0.00     0.163 HD
ATOM      5  C9  <0> d          49.519  49.713  41.450  0.00  0.00     0.200 C 
ATOM      6  C15 <0> d          48.749  50.998  41.594  0.00  0.00     0.250 C 
ATOM      7  N2  <0> d          48.641  50.856  42.903  0.00  0.00    -0.302 N 
ATOM      8  O2  <0> d          48.371  51.840  40.808  0.00  0.00    -0.271 OA
ATOM      9  C10 <0> d          49.706  49.825  42.948  0.00  0.00     0.125 C 
ATOM     10  C14 <0> d          47.875  51.288  44.009  0.00  0.00     0.133 C 
ATOM     11  C11 <0> d          49.146  48.671  43.797  0.00  0.00     0.034 C 
ATOM     12  C12 <0> d          48.748  49.234  45.162  0.00  0.00     0.056 C 
ATOM     13  C13 <0> d          47.926  50.482  45.084  0.00  0.00     0.045 C 
ATOM     14 Cl1  <0> d          46.985  50.923  46.475  0.00  0.00    -0.086 Cl
ATOM     15  C16 <0> d          47.081  52.526  43.987  0.00  0.00     0.228 C 
ATOM     16  O3  <0> d          47.613  53.593  44.226  0.00  0.00    -0.643 OA
ATOM     17  O4  <0> d          45.766  52.478  43.700  0.00  0.00    -0.643 OA
ATOM     18  C7  <0> d          52.030  49.781  38.561  0.00  0.00     0.307 C 
ATOM     19  C4  <0> d          52.464  51.224  38.551  0.00  0.00    -0.019 A 
ATOM     20  C3  <0> d          51.836  52.130  37.717  0.00  0.00     0.010 A 
ATOM     21  C2  <0> d          52.235  53.454  37.709  0.00  0.00     0.001 A 
ATOM     22  C1  <0> d          53.259  53.873  38.535  0.00  0.00     0.000 A 
ATOM     23  C6  <0> d          53.886  52.967  39.371  0.00  0.00     0.001 A 
ATOM     24  C5  <0> d          53.485  51.644  39.383  0.00  0.00     0.010 A 
ATOM     25  N3  <0> d          51.827  49.333  37.171  0.00  0.00    -0.062 N 
ATOM     26  H14 <0> d          51.600  50.129  36.578  0.00  0.00     0.275 HD
ATOM     27  H15 <0> d          52.670  48.880  36.824  0.00  0.00     0.275 HD
ATOM     28  H16 <0> d          51.050  48.663  37.144  0.00  0.00     0.275 HD
ENDMDL
MODEL 8
REMARK VINA RESULT:      -8.2      2.801      3.642
ATOM      1  C8  <0> d          50.700  47.548  38.881  0.00  0.00     0.253 C 
ATOM      2  O1  <0> d          49.527  47.491  38.578  0.00  0.00    -0.271 OA
ATOM      3  N1  <0> d          51.056  47.640  40.178  0.00  0.00    -0.344 N 
ATOM      4  H9  <0> d          51.994  47.684  40.421  0.00  0.00     0.163 HD
ATOM      5  C9  <0> d          50.027  47.675  41.220  0.00  0.00     0.200 C 
ATOM      6  C15 <0> d          49.955  48.979  41.967  0.00  0.00     0.250 C 
ATOM      7  N2  <0> d          50.001  48.378  43.142  0.00  0.00    -0.302 N 
ATOM      8  O2  <0> d          49.882  50.139  41.620  0.00  0.00    -0.271 OA
ATOM      9  C10 <0> d          50.476  47.104  42.549  0.00  0.00     0.125 C 
ATOM     10  C14 <0> d          49.697  48.580  44.507  0.00  0.00     0.133 C 
ATOM     11  C11 <0> d          49.595  45.998  43.153  0.00  0.00     0.034 C 
ATOM     12  C12 <0> d          49.714  46.074  44.676  0.00  0.00     0.056 C 
ATOM     13  C13 <0> d          49.546  47.455  45.227  0.00  0.00     0.045 C 
ATOM     14 Cl1  <0> d          49.137  47.615  46.907  0.00  0.00    -0.086 Cl
ATOM     15  C16 <0> d          49.558  49.921  45.097  0.00  0.00     0.228 C 
ATOM     16  O3  <0> d          48.465  50.448  45.160  0.00  0.00    -0.643 OA
ATOM     17  O4  <0> d          50.645  50.563  45.571  0.00  0.00    -0.643 OA
ATOM     18  C7  <0> d          51.758  47.511  37.809  0.00  0.00     0.307 C 
ATOM     19  C4  <0> d          51.603  48.710  36.910  0.00  0.00    -0.019 A 
ATOM     20  C3  <0> d          51.860  49.978  37.397  0.00  0.00     0.010 A 
ATOM     21  C2  <0> d          51.717  51.078  36.571  0.00  0.00     0.001 A 
ATOM     22  C1  <0> d          51.320  50.910  35.259  0.00  0.00     0.000 A 
ATOM     23  C6  <0> d          51.064  49.642  34.771  0.00  0.00     0.001 A 
ATOM     24  C5  <0> d          51.211  48.542  35.595  0.00  0.00     0.010 A 
ATOM     25  N3  <0> d          51.629  46.286  37.000  0.00  0.00    -0.062 N 
ATOM     26  H14 <0> d          51.934  45.478  37.539  0.00  0.00     0.275 HD
ATOM     27  H15 <0> d          50.660  46.157  36.714  0.00  0.00     0.275 HD
ATOM     28  H16 <0> d          52.216  46.372  36.163  0.00  0.00     0.275 HD
ENDMDL
MODEL 9
REMARK VINA RESULT:      -8.1      3.821      8.093
ATOM      1  C8  <0> d          52.191  47.571  42.801  0.00  0.00     0.253 C 
ATOM      2  O1  <0> d          53.132  46.850  42.546  0.00  0.00    -0.271 OA
ATOM      3  N1  <0> d          51.537  48.200  41.805  0.00  0.00    -0.344 N 
ATOM      4  H9  <0> d          50.783  48.777  42.007  0.00  0.00     0.163 HD
ATOM      5  C9  <0> d          51.964  48.016  40.415  0.00  0.00     0.200 C 
ATOM      6  C15 <0> d          51.837  49.252  39.566  0.00  0.00     0.250 C 
ATOM      7  N2  <0> d          51.184  48.606  38.618  0.00  0.00    -0.302 N 
ATOM      8  O2  <0> d          52.199  50.401  39.702  0.00  0.00    -0.271 OA
ATOM      9  C10 <0> d          50.889  47.456  39.509  0.00  0.00     0.125 C 
ATOM     10  C14 <0> d          50.845  48.685  37.248  0.00  0.00     0.133 C 
ATOM     11  C11 <0> d          51.254  46.194  38.710  0.00  0.00     0.034 C 
ATOM     12  C12 <0> d          50.455  46.209  37.406  0.00  0.00     0.056 C 
ATOM     13  C13 <0> d          50.512  47.515  36.677  0.00  0.00     0.045 C 
ATOM     14 Cl1  <0> d          50.115  47.519  34.987  0.00  0.00    -0.086 Cl
ATOM     15  C16 <0> d          50.853  49.953  36.503  0.00  0.00     0.228 C 
ATOM     16  O3  <0> d          51.897  50.396  36.067  0.00  0.00    -0.643 OA
ATOM     17  O4  <0> d          49.701  50.623  36.302  0.00  0.00    -0.643 OA
ATOM     18  C7  <0> d          51.751  47.760  44.229  0.00  0.00     0.307 C 
ATOM     19  C4  <0> d          50.639  46.792  44.543  0.00  0.00    -0.019 A 
ATOM     20  C3  <0> d          50.286  46.546  45.857  0.00  0.00     0.010 A 
ATOM     21  C2  <0> d          49.265  45.658  46.144  0.00  0.00     0.001 A 
ATOM     22  C1  <0> d          48.597  45.018  45.119  0.00  0.00     0.000 A 
ATOM     23  C6  <0> d          48.949  45.265  43.805  0.00  0.00     0.001 A 
ATOM     24  C5  <0> d          49.966  46.156  43.517  0.00  0.00     0.010 A 
ATOM     25  N3  <0> d          51.263  49.134  44.441  0.00  0.00    -0.062 N 
ATOM     26  H14 <0> d          50.673  49.171  45.270  0.00  0.00     0.275 HD
ATOM     27  H15 <0> d          52.050  49.770  44.556  0.00  0.00     0.275 HD
ATOM     28  H16 <0> d          50.713  49.425  43.625  0.00  0.00     0.275 HD
ENDMDL
MODEL 10
REMARK VINA RESULT:      -8.1      3.188      7.835
ATOM      1  C8  <0> d          49.806  46.079  43.692  0.00  0.00     0.253 C 
ATOM      2  O1  <0> d          50.934  45.901  44.102  0.00  0.00    -0.271 OA
ATOM      3  N1  <0> d          49.610  46.601  42.466  0.00  0.00    -0.344 N 
ATOM      4  H9  <0> d          48.709  46.743  42.137  0.00  0.00     0.163 HD
ATOM      5  C9  <0> d          50.759  46.957  41.627  0.00  0.00     0.200 C 
ATOM      6  C15 <0> d          51.127  48.415  41.678  0.00  0.00     0.250 C 
ATOM      7  N2  <0> d          51.141  48.518  40.361  0.00  0.00    -0.302 N 
ATOM      8  O2  <0> d          51.333  49.195  42.583  0.00  0.00    -0.271 OA
ATOM      9  C10 <0> d          50.403  47.244  40.184  0.00  0.00     0.125 C 
ATOM     10  C14 <0> d          51.648  49.321  39.314  0.00  0.00     0.133 C 
ATOM     11  C11 <0> d          51.174  46.449  39.117  0.00  0.00     0.034 C 
ATOM     12  C12 <0> d          51.266  47.311  37.857  0.00  0.00     0.056 C 
ATOM     13  C13 <0> d          51.715  48.715  38.117  0.00  0.00     0.045 C 
ATOM     14 Cl1  <0> d          52.358  49.622  36.782  0.00  0.00    -0.086 Cl
ATOM     15  C16 <0> d          52.066  50.716  39.519  0.00  0.00     0.228 C 
ATOM     16  O3  <0> d          51.261  51.618  39.391  0.00  0.00    -0.643 OA
ATOM     17  O4  <0> d          53.343  50.994  39.850  0.00  0.00    -0.643 OA
ATOM     18  C7  <0> d          48.625  45.714  44.554  0.00  0.00     0.307 C 
ATOM     19  C4  <0> d          48.319  46.851  45.494  0.00  0.00    -0.019 A 
ATOM     20  C3  <0> d          48.985  46.950  46.701  0.00  0.00     0.010 A 
ATOM     21  C2  <0> d          48.703  47.995  47.562  0.00  0.00     0.001 A 
ATOM     22  C1  <0> d          47.757  48.940  47.216  0.00  0.00     0.000 A 
ATOM     23  C6  <0> d          47.092  48.842  46.008  0.00  0.00     0.001 A 
ATOM     24  C5  <0> d          47.377  47.801  45.144  0.00  0.00     0.010 A 
ATOM     25  N3  <0> d          48.919  44.506  45.345  0.00  0.00    -0.062 N 
ATOM     26  H14 <0> d          49.209  44.767  46.285  0.00  0.00     0.275 HD
ATOM     27  H15 <0> d          48.093  43.913  45.397  0.00  0.00     0.275 HD
ATOM     28  H16 <0> d          49.678  43.984  44.893  0.00  0.00     0.275 HD
ENDMDL
MODEL 1
REMARK VINA RESULT:      -9.0      0.000      0.000
ATOM      1  C8  <0> d          51.405  49.988  40.975  0.00  0.00     0.253 C 
ATOM      2  O1  <0> d          50.830  51.001  41.313  0.00  0.00    -0.271 OA
ATOM      3  N1  <0> d          51.470  48.939  41.819  0.00  0.00    -0.344 N 
ATOM      4  H9  <0> d          51.930  48.129  41.548  0.00  0.00     0.163 HD
ATOM      5  C9  <0> d          50.850  49.023  43.144  0.00  0.00     0.200 C 
ATOM      6  C15 <0> d          51.140  47.844  44.032  0.00  0.00     0.250 C 
ATOM      7  N2  <0> d          49.864  47.669  44.319  0.00  0.00    -0.302 N 
ATOM      8  O2  <0> d          52.159  47.273  44.360  0.00  0.00    -0.271 OA
ATOM      9  C10 <0> d          49.422  48.523  43.188  0.00  0.00     0.125 C 
ATOM     10  C14 <0> d          49.009  47.071  45.272  0.00  0.00     0.133 C 
ATOM     11  C11 <0> d          48.376  49.489  43.767  0.00  0.00     0.034 C 
ATOM     12  C12 <0> d          47.263  48.657  44.408  0.00  0.00     0.056 C 
ATOM     13  C13 <0> d          47.763  47.573  45.311  0.00  0.00     0.045 C 
ATOM     14 Cl1  <0> d          46.659  46.918  46.480  0.00  0.00    -0.086 Cl
ATOM     15  C16 <0> d          49.449  45.980  46.156  0.00  0.00     0.228 C 
ATOM     16  O3  <0> d          49.959  46.236  47.229  0.00  0.00    -0.643 OA
ATOM     17  O4  <0> d          49.286  44.698  45.775  0.00  0.00    -0.643 OA
ATOM     18  C7  <0> d          52.042  49.902  39.613  0.00  0.00     0.307 C 
ATOM     19  C4  <0> d          52.437  51.282  39.156  0.00  0.00    -0.019 A 
ATOM     20  C3  <0> d          51.655  51.957  38.237  0.00  0.00     0.010 A 
ATOM     21  C2  <0> d          52.019  53.224  37.817  0.00  0.00     0.001 A 
ATOM     22  C1  <0> d          53.163  53.815  38.317  0.00  0.00     0.000 A 
ATOM     23  C6  <0> d          53.945  53.141  39.236  0.00  0.00     0.001 A 
ATOM     24  C5  <0> d          53.580  51.876  39.659  0.00  0.00     0.010 A 
ATOM     25  N3  <0> d          51.098  49.328  38.637  0.00  0.00    -0.062 N 
ATOM     26  H14 <0> d          51.250  49.746  37.719  0.00  0.00     0.275 HD
ATOM     27  H15 <0> d          51.227  48.320  38.577  0.00  0.00     0.275 HD
ATOM     28  H16 <0> d          50.138  49.527  38.940  0.00  0.00     0.275 HD
ENDMDL
MODEL 2
REMARK VINA RESULT:      -8.7      3.272      3.793
ATOM      1  C8  <0> d          51.565  46.659  40.496  0.00  0.00     0.253 C 
ATOM      2  O1  <0> d          52.555  47.246  40.878  0.00  0.00    -0.271 OA
ATOM      3  N1  <0> d          50.403  46.793  41.167  0.00  0.00    -0.344 N 
ATOM      4  H9  <0> d          49.612  46.323  40.862  0.00  0.00     0.163 HD
ATOM      5  C9  <0> d          50.337  47.645  42.357  0.00  0.00     0.200 C 
ATOM      6  C15 <0> d          50.307  46.886  43.655  0.00  0.00     0.250 C 
ATOM      7  N2  <0> d          49.255  47.552  44.091  0.00  0.00    -0.302 N 
ATOM      8  O2  <0> d          50.991  45.999  44.122  0.00  0.00    -0.271 OA
ATOM      9  C10 <0> d          48.934  48.066  42.736  0.00  0.00     0.125 C 
ATOM     10  C14 <0> d          48.563  47.888  45.277  0.00  0.00     0.133 C 
ATOM     11  C11 <0> d          48.691  49.576  42.899  0.00  0.00     0.034 C 
ATOM     12  C12 <0> d          47.580  49.770  43.933  0.00  0.00     0.056 C 
ATOM     13  C13 <0> d          47.772  48.972  45.184  0.00  0.00     0.045 C 
ATOM     14 Cl1  <0> d          46.914  49.474  46.607  0.00  0.00    -0.086 Cl
ATOM     15  C16 <0> d          48.697  47.111  46.518  0.00  0.00     0.228 C 
ATOM     16  O3  <0> d          49.562  47.397  47.323  0.00  0.00    -0.643 OA
ATOM     17  O4  <0> d          47.860  46.085  46.764  0.00  0.00    -0.643 OA
ATOM     18  C7  <0> d          51.633  45.782  39.273  0.00  0.00     0.307 C 
ATOM     19  C4  <0> d          51.089  46.534  38.086  0.00  0.00    -0.019 A 
ATOM     20  C3  <0> d          51.899  47.418  37.397  0.00  0.00     0.010 A 
ATOM     21  C2  <0> d          51.399  48.108  36.307  0.00  0.00     0.001 A 
ATOM     22  C1  <0> d          50.090  47.914  35.908  0.00  0.00     0.000 A 
ATOM     23  C6  <0> d          49.280  47.030  36.597  0.00  0.00     0.001 A 
ATOM     24  C5  <0> d          49.781  46.337  37.684  0.00  0.00     0.010 A 
ATOM     25  N3  <0> d          50.836  44.559  39.470  0.00  0.00    -0.062 N 
ATOM     26  H14 <0> d          51.441  43.793  39.765  0.00  0.00     0.275 HD
ATOM     27  H15 <0> d          50.120  44.718  40.176  0.00  0.00     0.275 HD
ATOM     28  H16 <0> d          50.384  44.305  38.585  0.00  0.00     0.275 HD
ENDMDL
MODEL 3
REMARK VINA RESULT:      -8.3      3.335      8.188
ATOM      1  C8  <0> d          50.579  46.967  45.180  0.00  0.00     0.253 C 
ATOM      2  O1  <0> d          51.670  46.447  45.286  0.00  0.00    -0.271 OA
ATOM      3  N1  <0> d          50.219  47.543  44.016  0.00  0.00    -0.344 N 
ATOM      4  H9  <0> d          49.346  47.958  43.931  0.00  0.00     0.163 HD
ATOM      5  C9  <0> d          51.144  47.543  42.880  0.00  0.00     0.200 C 
ATOM      6  C15 <0> d          51.020  48.749  41.988  0.00  0.00     0.250 C 
ATOM      7  N2  <0> d          50.932  48.009  40.899  0.00  0.00    -0.302 N 
ATOM      8  O2  <0> d          51.006  49.944  42.194  0.00  0.00    -0.271 OA
ATOM      9  C10 <0> d          50.640  46.778  41.675  0.00  0.00     0.125 C 
ATOM     10  C14 <0> d          51.094  48.070  39.496  0.00  0.00     0.133 C 
ATOM     11  C11 <0> d          51.572  45.690  41.115  0.00  0.00     0.034 C 
ATOM     12  C12 <0> d          51.313  45.570  39.612  0.00  0.00     0.056 C 
ATOM     13  C13 <0> d          51.293  46.884  38.895  0.00  0.00     0.045 C 
ATOM     14 Cl1  <0> d          51.537  46.875  37.177  0.00  0.00    -0.086 Cl
ATOM     15  C16 <0> d          51.047  49.336  38.749  0.00  0.00     0.228 C 
ATOM     16  O3  <0> d          49.982  49.769  38.354  0.00  0.00    -0.643 OA
ATOM     17  O4  <0> d          52.184  50.017  38.503  0.00  0.00    -0.643 OA
ATOM     18  C7  <0> d          49.628  46.966  46.348  0.00  0.00     0.307 C 
ATOM     19  C4  <0> d          48.522  45.975  46.094  0.00  0.00    -0.019 A 
ATOM     20  C3  <0> d          47.203  46.353  46.263  0.00  0.00     0.010 A 
ATOM     21  C2  <0> d          46.188  45.442  46.030  0.00  0.00     0.001 A 
ATOM     22  C1  <0> d          46.492  44.156  45.627  0.00  0.00     0.000 A 
ATOM     23  C6  <0> d          47.811  43.778  45.458  0.00  0.00     0.001 A 
ATOM     24  C5  <0> d          48.826  44.690  45.687  0.00  0.00     0.010 A 
ATOM     25  N3  <0> d          49.037  48.304  46.533  0.00  0.00    -0.062 N 
ATOM     26  H14 <0> d          48.583  48.606  45.671  0.00  0.00     0.275 HD
ATOM     27  H15 <0> d          48.354  48.283  47.287  0.00  0.00     0.275 HD
ATOM     28  H16 <0> d          49.779  48.970  46.770  0.00  0.00     0.275 HD
ENDMDL
MODEL 4
REMARK VINA RESULT:      -8.3      3.811      4.865
ATOM      1  C8  <0> d          49.761  47.618  39.958  0.00  0.00     0.253 C 
ATOM      2  O1  <0> d          48.613  47.280  39.766  0.00  0.00    -0.271 OA
ATOM      3  N1  <0> d          50.039  48.566  40.875  0.00  0.00    -0.344 N 
ATOM      4  H9  <0> d          50.958  48.836  41.028  0.00  0.00     0.163 HD
ATOM      5  C9  <0> d          48.955  49.188  41.639  0.00  0.00     0.200 C 
ATOM      6  C15 <0> d          49.138  50.663  41.875  0.00  0.00     0.250 C 
ATOM      7  N2  <0> d          48.917  50.545  43.171  0.00  0.00    -0.302 N 
ATOM      8  O2  <0> d          49.393  51.601  41.149  0.00  0.00    -0.271 OA
ATOM      9  C10 <0> d          49.114  49.074  43.140  0.00  0.00     0.125 C 
ATOM     10  C14 <0> d          48.541  51.295  44.308  0.00  0.00     0.133 C 
ATOM     11  C11 <0> d          47.929  48.469  43.911  0.00  0.00     0.034 C 
ATOM     12  C12 <0> d          47.914  49.079  45.314  0.00  0.00     0.056 C 
ATOM     13  C13 <0> d          48.044  50.570  45.326  0.00  0.00     0.045 C 
ATOM     14 Cl1  <0> d          47.524  51.419  46.748  0.00  0.00    -0.086 Cl
ATOM     15  C16 <0> d          48.684  52.757  44.375  0.00  0.00     0.228 C 
ATOM     16  O3  <0> d          49.765  53.250  44.633  0.00  0.00    -0.643 OA
ATOM     17  O4  <0> d          47.618  53.549  44.148  0.00  0.00    -0.643 OA
ATOM     18  C7  <0> d          50.876  46.978  39.173  0.00  0.00     0.307 C 
ATOM     19  C4  <0> d          50.814  47.445  37.741  0.00  0.00    -0.019 A 
ATOM     20  C3  <0> d          50.065  46.741  36.817  0.00  0.00     0.010 A 
ATOM     21  C2  <0> d          50.008  47.169  35.502  0.00  0.00     0.001 A 
ATOM     22  C1  <0> d          50.699  48.301  35.114  0.00  0.00     0.000 A 
ATOM     23  C6  <0> d          51.448  49.005  36.039  0.00  0.00     0.001 A 
ATOM     24  C5  <0> d          51.501  48.580  37.354  0.00  0.00     0.010 A 
ATOM     25  N3  <0> d          50.751  45.510  39.202  0.00  0.00    -0.062 N 
ATOM     26  H14 <0> d          50.934  45.164  40.144  0.00  0.00     0.275 HD
ATOM     27  H15 <0> d          49.814  45.234  38.915  0.00  0.00     0.275 HD
ATOM     28  H16 <0> d          51.435  45.101  38.557  0.00  0.00     0.275 HD
ENDMDL
MODEL 5
REMARK VINA RESULT:      -8.1      3.478      4.358
ATOM      1  C8  <0> d          49.484  50.896  39.032  0.00  0.00     0.253 C 
ATOM      2  O1  <0> d          49.438  49.685  38.985  0.00  0.00    -0.271 OA
ATOM      3  N1  <0> d          48.996  51.547  40.107  0.00  0.00    -0.344 N 
ATOM      4  H9  <0> d          49.033  52.515  40.145  0.00  0.00     0.163 HD
ATOM      5  C9  <0> d          48.408  50.791  41.217  0.00  0.00     0.200 C 
ATOM      6  C15 <0> d          47.270  51.496  41.904  0.00  0.00     0.250 C 
ATOM      7  N2  <0> d          47.798  51.312  43.100  0.00  0.00    -0.302 N 
ATOM      8  O2  <0> d          46.256  52.030  41.509  0.00  0.00    -0.271 OA
ATOM      9  C10 <0> d          49.129  50.973  42.535  0.00  0.00     0.125 C 
ATOM     10  C14 <0> d          47.462  51.281  44.472  0.00  0.00     0.133 C 
ATOM     11  C11 <0> d          49.582  49.690  43.252  0.00  0.00     0.034 C 
ATOM     12  C12 <0> d          49.580  49.961  44.758  0.00  0.00     0.056 C 
ATOM     13  C13 <0> d          48.326  50.611  45.254  0.00  0.00     0.045 C 
ATOM     14 Cl1  <0> d          47.968  50.495  46.948  0.00  0.00    -0.086 Cl
ATOM     15  C16 <0> d          46.258  51.936  45.006  0.00  0.00     0.228 C 
ATOM     16  O3  <0> d          45.196  51.345  45.007  0.00  0.00    -0.643 OA
ATOM     17  O4  <0> d          46.333  53.189  45.495  0.00  0.00    -0.643 OA
ATOM     18  C7  <0> d          50.088  51.672  37.891  0.00  0.00     0.307 C 
ATOM     19  C4  <0> d          51.423  52.228  38.314  0.00  0.00    -0.019 A 
ATOM     20  C3  <0> d          52.207  51.533  39.216  0.00  0.00     0.010 A 
ATOM     21  C2  <0> d          53.433  52.044  39.605  0.00  0.00     0.001 A 
ATOM     22  C1  <0> d          53.873  53.249  39.090  0.00  0.00     0.000 A 
ATOM     23  C6  <0> d          53.089  53.944  38.187  0.00  0.00     0.001 A 
ATOM     24  C5  <0> d          51.866  53.431  37.796  0.00  0.00     0.010 A 
ATOM     25  N3  <0> d          49.207  52.788  37.503  0.00  0.00    -0.062 N 
ATOM     26  H14 <0> d          48.566  53.006  38.265  0.00  0.00     0.275 HD
ATOM     27  H15 <0> d          49.763  53.611  37.281  0.00  0.00     0.275 HD
ATOM     28  H16 <0> d          48.664  52.517  36.676  0.00  0.00     0.275 HD
ENDMDL
MODEL 6
REMARK VINA RESULT:      -8.1      2.880      3.468
ATOM      1  C8  <0> d          51.347  49.878  40.283  0.00  0.00     0.253 C 
ATOM      2  O1  <0> d          51.925  49.168  41.078  0.00  0.00    -0.271 OA
ATOM      3  N1  <0> d          50.215  50.514  40.648  0.00  0.00    -0.344 N 
ATOM      4  H9  <0> d          49.753  51.081  40.012  0.00  0.00     0.163 HD
ATOM      5  C9  <0> d          49.683  50.346  42.003  0.00  0.00     0.200 C 
ATOM      6  C15 <0> d          48.556  49.356  42.101  0.00  0.00     0.250 C 
ATOM      7  N2  <0> d          47.787  50.204  42.757  0.00  0.00    -0.302 N 
ATOM      8  O2  <0> d          48.409  48.213  41.720  0.00  0.00    -0.271 OA
ATOM      9  C10 <0> d          48.631  51.366  42.382  0.00  0.00     0.125 C 
ATOM     10  C14 <0> d          46.659  50.256  43.607  0.00  0.00     0.133 C 
ATOM     11  C11 <0> d          48.875  52.153  43.680  0.00  0.00     0.034 C 
ATOM     12  C12 <0> d          47.515  52.521  44.275  0.00  0.00     0.056 C 
ATOM     13  C13 <0> d          46.554  51.375  44.344  0.00  0.00     0.045 C 
ATOM     14 Cl1  <0> d          45.216  51.503  45.442  0.00  0.00    -0.086 Cl
ATOM     15  C16 <0> d          45.673  49.167  43.680  0.00  0.00     0.228 C 
ATOM     16  O3  <0> d          45.835  48.252  44.464  0.00  0.00    -0.643 OA
ATOM     17  O4  <0> d          44.589  49.185  42.880  0.00  0.00    -0.643 OA
ATOM     18  C7  <0> d          51.894  50.050  38.890  0.00  0.00     0.307 C 
ATOM     19  C4  <0> d          52.409  51.456  38.724  0.00  0.00    -0.019 A 
ATOM     20  C3  <0> d          53.477  51.896  39.485  0.00  0.00     0.010 A 
ATOM     21  C2  <0> d          53.950  53.187  39.333  0.00  0.00     0.001 A 
ATOM     22  C1  <0> d          53.356  54.037  38.419  0.00  0.00     0.000 A 
ATOM     23  C6  <0> d          52.288  53.597  37.658  0.00  0.00     0.001 A 
ATOM     24  C5  <0> d          51.818  52.305  37.807  0.00  0.00     0.010 A 
ATOM     25  N3  <0> d          50.841  49.806  37.889  0.00  0.00    -0.062 N 
ATOM     26  H14 <0> d          51.263  49.604  36.982  0.00  0.00     0.275 HD
ATOM     27  H15 <0> d          50.261  49.020  38.176  0.00  0.00     0.275 HD
ATOM     28  H16 <0> d          50.254  50.643  37.805  0.00  0.00     0.275 HD
ENDMDL
MODEL 7
REMARK VINA RESULT:      -8.1      3.200      7.838
ATOM      1  C8  <0> d          49.802  46.069  43.690  0.00  0.00     0.253 C 
ATOM      2  O1  <0> d          50.928  45.881  44.099  0.00  0.00    -0.271 OA
ATOM      3  N1  <0> d          49.612  46.595  42.463  0.00  0.00    -0.344 N 
ATOM      4  H9  <0> d          48.712  46.745  42.135  0.00  0.00     0.163 HD
ATOM      5  C9  <0> d          50.764  46.940  41.626  0.00  0.00     0.200 C 
ATOM      6  C15 <0> d          51.133  48.398  41.661  0.00  0.00     0.250 C 
ATOM      7  N2  <0> d          51.153  48.488  40.345  0.00  0.00    -0.302 N 
ATOM      8  O2  <0> d          51.334  49.189  42.559  0.00  0.00    -0.271 OA
ATOM      9  C10 <0> d          50.414  47.211  40.178  0.00  0.00     0.125 C 
ATOM     10  C14 <0> d          51.663  49.279  39.291  0.00  0.00     0.133 C 
ATOM     11  C11 <0> d          51.189  46.405  39.123  0.00  0.00     0.034 C 
ATOM     12  C12 <0> d          51.287  47.253  37.853  0.00  0.00     0.056 C 
ATOM     13  C13 <0> d          51.735  48.660  38.100  0.00  0.00     0.045 C 
ATOM     14 Cl1  <0> d          52.384  49.551  36.759  0.00  0.00    -0.086 Cl
ATOM     15  C16 <0> d          52.082  50.676  39.482  0.00  0.00     0.228 C 
ATOM     16  O3  <0> d          51.280  51.577  39.331  0.00  0.00    -0.643 OA
ATOM     17  O4  <0> d          53.355  50.957  39.825  0.00  0.00    -0.643 OA
ATOM     18  C7  <0> d          48.619  45.714  44.550  0.00  0.00     0.307 C 
ATOM     19  C4  <0> d          48.322  46.852  45.491  0.00  0.00    -0.019 A 
ATOM     20  C3  <0> d          47.385  47.808  45.147  0.00  0.00     0.010 A 
ATOM     21  C2  <0> d          47.113  48.854  46.011  0.00  0.00     0.001 A 
ATOM     22  C1  <0> d          47.778  48.942  47.219  0.00  0.00     0.000 A 
ATOM     23  C6  <0> d          48.716  47.986  47.564  0.00  0.00     0.001 A 
ATOM     24  C5  <0> d          48.984  46.938  46.702  0.00  0.00     0.010 A 
ATOM     25  N3  <0> d          48.900  44.502  45.340  0.00  0.00    -0.062 N 
ATOM     26  H14 <0> d          49.759  44.628  45.876  0.00  0.00     0.275 HD
ATOM     27  H15 <0> d          48.129  44.312  45.976  0.00  0.00     0.275 HD
ATOM     28  H16 <0> d          49.016  43.705  44.705  0.00  0.00     0.275 HD
ENDMDL
MODEL 8
REMARK VINA RESULT:      -8.0      2.683      3.589
ATOM      1  C8  <0> d          50.492  47.163  39.448  0.00  0.00     0.253 C 
ATOM      2  O1  <0> d          49.323  47.246  39.136  0.00  0.00    -0.271 OA
ATOM      3  N1  <0> d          50.844  47.191  40.749  0.00  0.00    -0.344 N 
ATOM      4  H9  <0> d          51.778  47.125  40.999  0.00  0.00     0.163 HD
ATOM      5  C9  <0> d          49.816  47.324  41.785  0.00  0.00     0.200 C 
ATOM      6  C15 <0> d          49.747  48.692  42.408  0.00  0.00     0.250 C 
ATOM      7  N2  <0> d          49.793  48.202  43.633  0.00  0.00    -0.302 N 
ATOM      8  O2  <0> d          49.676  49.815  41.956  0.00  0.00    -0.271 OA
ATOM      9  C10 <0> d          50.265  46.877  43.159  0.00  0.00     0.125 C 
ATOM     10  C14 <0> d          49.491  48.530  44.975  0.00  0.00     0.133 C 
ATOM     11  C11 <0> d          49.382  45.833  43.863  0.00  0.00     0.034 C 
ATOM     12  C12 <0> d          49.503  46.049  45.373  0.00  0.00     0.056 C 
ATOM     13  C13 <0> d          49.338  47.476  45.795  0.00  0.00     0.045 C 
ATOM     14 Cl1  <0> d          48.930  47.789  47.453  0.00  0.00    -0.086 Cl
ATOM     15  C16 <0> d          49.354  49.919  45.439  0.00  0.00     0.228 C 
ATOM     16  O3  <0> d          50.347  50.585  45.658  0.00  0.00    -0.643 OA
ATOM     17  O4  <0> d          48.130  50.452  45.619  0.00  0.00    -0.643 OA
ATOM     18  C7  <0> d          51.548  47.026  38.383  0.00  0.00     0.307 C 
ATOM     19  C4  <0> d          51.630  48.304  37.590  0.00  0.00    -0.019 A 
ATOM     20  C3  <0> d          51.920  49.496  38.228  0.00  0.00     0.010 A 
ATOM     21  C2  <0> d          51.995  50.670  37.499  0.00  0.00     0.001 A 
ATOM     22  C1  <0> d          51.780  50.650  36.134  0.00  0.00     0.000 A 
ATOM     23  C6  <0> d          51.490  49.458  35.496  0.00  0.00     0.001 A 
ATOM     24  C5  <0> d          51.420  48.284  36.224  0.00  0.00     0.010 A 
ATOM     25  N3  <0> d          51.219  45.917  37.470  0.00  0.00    -0.062 N 
ATOM     26  H14 <0> d          51.969  45.226  37.476  0.00  0.00     0.275 HD
ATOM     27  H15 <0> d          50.348  45.475  37.757  0.00  0.00     0.275 HD
ATOM     28  H16 <0> d          51.112  46.285  36.519  0.00  0.00     0.275 HD
ENDMDL
MODEL 9
REMARK VINA RESULT:      -7.9      3.896      8.367
ATOM      1  C8  <0> d          50.630  48.363  42.212  0.00  0.00     0.253 C 
ATOM      2  O1  <0> d          49.570  48.952  42.244  0.00  0.00    -0.271 OA
ATOM      3  N1  <0> d          51.246  48.151  41.031  0.00  0.00    -0.344 N 
ATOM      4  H9  <0> d          52.093  47.681  41.005  0.00  0.00     0.163 HD
ATOM      5  C9  <0> d          50.634  48.629  39.788  0.00  0.00     0.200 C 
ATOM      6  C15 <0> d          51.267  48.075  38.541  0.00  0.00     0.250 C 
ATOM      7  N2  <0> d          51.403  49.274  38.005  0.00  0.00    -0.302 N 
ATOM      8  O2  <0> d          51.546  46.955  38.171  0.00  0.00    -0.271 OA
ATOM      9  C10 <0> d          51.180  49.956  39.304  0.00  0.00     0.125 C 
ATOM     10  C14 <0> d          51.584  49.923  36.763  0.00  0.00     0.133 C 
ATOM     11  C11 <0> d          50.148  51.063  39.033  0.00  0.00     0.034 C 
ATOM     12  C12 <0> d          50.700  51.966  37.927  0.00  0.00     0.056 C 
ATOM     13  C13 <0> d          51.224  51.218  36.741  0.00  0.00     0.045 C 
ATOM     14 Cl1  <0> d          51.381  52.081  35.243  0.00  0.00    -0.086 Cl
ATOM     15  C16 <0> d          52.128  49.235  35.582  0.00  0.00     0.228 C 
ATOM     16  O3  <0> d          53.321  49.273  35.353  0.00  0.00    -0.643 OA
ATOM     17  O4  <0> d          51.304  48.561  34.756  0.00  0.00    -0.643 OA
ATOM     18  C7  <0> d          51.258  47.872  43.489  0.00  0.00     0.307 C 
ATOM     19  C4  <0> d          50.321  46.909  44.172  0.00  0.00    -0.019 A 
ATOM     20  C3  <0> d          50.110  47.000  45.535  0.00  0.00     0.010 A 
ATOM     21  C2  <0> d          49.249  46.116  46.162  0.00  0.00     0.001 A 
ATOM     22  C1  <0> d          48.601  45.144  45.424  0.00  0.00     0.000 A 
ATOM     23  C6  <0> d          48.812  45.053  44.061  0.00  0.00     0.001 A 
ATOM     24  C5  <0> d          49.669  45.940  43.434  0.00  0.00     0.010 A 
ATOM     25  N3  <0> d          51.529  49.000  44.398  0.00  0.00    -0.062 N 
ATOM     26  H14 <0> d          50.666  49.512  44.584  0.00  0.00     0.275 HD
ATOM     27  H15 <0> d          51.916  48.657  45.275  0.00  0.00     0.275 HD
ATOM     28  H16 <0> d          52.204  49.633  43.957  0.00  0.00     0.275 HD
ENDMDL
MODEL 10
REMARK VINA RESULT:      -7.7      3.185      7.449
ATOM      1  C8  <0> d          49.631  47.600  45.394  0.00  0.00     0.253 C 
ATOM      2  O1  <0> d          50.765  47.605  45.823  0.00  0.00    -0.271 OA
ATOM      3  N1  <0> d          49.416  47.599  44.062  0.00  0.00    -0.344 N 
ATOM      4  H9  <0> d          48.509  47.595  43.719  0.00  0.00     0.163 HD
ATOM      5  C9  <0> d          50.551  47.606  43.136  0.00  0.00     0.200 C 
ATOM      6  C15 <0> d          50.633  48.836  42.275  0.00  0.00     0.250 C 
ATOM      7  N2  <0> d          50.751  48.128  41.168  0.00  0.00    -0.302 N 
ATOM      8  O2  <0> d          50.600  50.026  42.510  0.00  0.00    -0.271 OA
ATOM      9  C10 <0> d          50.286  46.885  41.832  0.00  0.00     0.125 C 
ATOM     10  C14 <0> d          51.194  48.221  39.828  0.00  0.00     0.133 C 
ATOM     11  C11 <0> d          51.290  45.789  41.438  0.00  0.00     0.034 C 
ATOM     12  C12 <0> d          51.337  45.714  39.910  0.00  0.00     0.056 C 
ATOM     13  C13 <0> d          51.487  47.046  39.244  0.00  0.00     0.045 C 
ATOM     14 Cl1  <0> d          52.071  47.075  37.610  0.00  0.00    -0.086 Cl
ATOM     15  C16 <0> d          51.322  49.507  39.126  0.00  0.00     0.228 C 
ATOM     16  O3  <0> d          52.346  50.154  39.228  0.00  0.00    -0.643 OA
ATOM     17  O4  <0> d          50.307  49.965  38.368  0.00  0.00    -0.643 OA
ATOM     18  C7  <0> d          48.464  47.593  46.346  0.00  0.00     0.307 C 
ATOM     19  C4  <0> d          47.661  48.855  46.165  0.00  0.00    -0.019 A 
ATOM     20  C3  <0> d          46.413  48.801  45.572  0.00  0.00     0.010 A 
ATOM     21  C2  <0> d          45.676  49.960  45.405  0.00  0.00     0.001 A 
ATOM     22  C1  <0> d          46.186  51.171  45.833  0.00  0.00     0.000 A 
ATOM     23  C6  <0> d          47.434  51.225  46.426  0.00  0.00     0.001 A 
ATOM     24  C5  <0> d          48.169  50.066  46.597  0.00  0.00     0.010 A 
ATOM     25  N3  <0> d          48.937  47.524  47.740  0.00  0.00    -0.062 N 
ATOM     26  H14 <0> d          49.849  47.070  47.776  0.00  0.00     0.275 HD
ATOM     27  H15 <0> d          49.009  48.461  48.132  0.00  0.00     0.275 HD
ATOM     28  H16 <0> d          48.270  46.979  48.296  0.00  0.00     0.275 HD
ENDMDL
MODEL 1
REMARK VINA RESULT:      -9.0      0.000      0.000
ATOM      1  C8  <0> d          51.406  49.996  40.976  0.00  0.00     0.253 C 
ATOM      2  O1  <0> d          50.842  51.015  41.314  0.00  0.00    -0.271 OA
ATOM      3  N1  <0> d          51.456  48.944  41.817  0.00  0.00    -0.344 N 
ATOM      4  H9  <0> d          51.908  48.129  41.546  0.00  0.00     0.163 HD
ATOM      5  C9  <0> d          50.833  49.031  43.139  0.00  0.00     0.200 C 
ATOM      6  C15 <0> d          51.129  47.861  44.036  0.00  0.00     0.250 C 
ATOM      7  N2  <0> d          49.854  47.677  44.320  0.00  0.00    -0.302 N 
ATOM      8  O2  <0> d          52.152  47.299  44.371  0.00  0.00    -0.271 OA
ATOM      9  C10 <0> d          49.408  48.521  43.184  0.00  0.00     0.125 C 
ATOM     10  C14 <0> d          49.001  47.079  45.275  0.00  0.00     0.133 C 
ATOM     11  C11 <0> d          48.353  49.482  43.753  0.00  0.00     0.034 C 
ATOM     12  C12 <0> d          47.245  48.645  44.396  0.00  0.00     0.056 C 
ATOM     13  C13 <0> d          47.751  47.572  45.308  0.00  0.00     0.045 C 
ATOM     14 Cl1  <0> d          46.648  46.915  46.477  0.00  0.00    -0.086 Cl
ATOM     15  C16 <0> d          49.447  45.998  46.166  0.00  0.00     0.228 C 
ATOM     16  O3  <0> d          49.951  46.263  47.240  0.00  0.00    -0.643 OA
ATOM     17  O4  <0> d          49.296  44.711  45.793  0.00  0.00    -0.643 OA
ATOM     18  C7  <0> d          52.048  49.906  39.615  0.00  0.00     0.307 C 
ATOM     19  C4  <0> d          52.447  51.285  39.157  0.00  0.00    -0.019 A 
ATOM     20  C3  <0> d          53.589  51.877  39.662  0.00  0.00     0.010 A 
ATOM     21  C2  <0> d          53.955  53.143  39.242  0.00  0.00     0.001 A 
ATOM     22  C1  <0> d          53.180  53.816  38.316  0.00  0.00     0.000 A 
ATOM     23  C6  <0> d          52.037  53.221  37.811  0.00  0.00     0.001 A 
ATOM     24  C5  <0> d          51.674  51.954  38.227  0.00  0.00     0.010 A 
ATOM     25  N3  <0> d          51.107  49.330  38.639  0.00  0.00    -0.062 N 
ATOM     26  H14 <0> d          50.764  50.059  38.014  0.00  0.00     0.275 HD
ATOM     27  H15 <0> d          51.570  48.606  38.093  0.00  0.00     0.275 HD
ATOM     28  H16 <0> d          50.312  48.917  39.139  0.00  0.00     0.275 HD
ENDMDL
MODEL 2
REMARK VINA RESULT:      -8.7      3.238      3.703
ATOM      1  C8  <0> d          51.591  46.653  40.487  0.00  0.00     0.253 C 
ATOM      2  O1  <0> d          52.588  47.220  40.883  0.00  0.00    -0.271 OA
ATOM      3  N1  <0> d          50.424  46.806  41.145  0.00  0.00    -0.344 N 
ATOM      4  H9  <0> d          49.628  46.352  40.828  0.00  0.00     0.163 HD
ATOM      5  C9  <0> d          50.360  47.652  42.339  0.00  0.00     0.200 C 
ATOM      6  C15 <0> d          50.336  46.886  43.633  0.00  0.00     0.250 C 
ATOM      7  N2  <0> d          49.284  47.547  44.075  0.00  0.00    -0.302 N 
ATOM      8  O2  <0> d          51.023  45.998  44.095  0.00  0.00    -0.271 OA
ATOM      9  C10 <0> d          48.956  48.068  42.724  0.00  0.00     0.125 C 
ATOM     10  C14 <0> d          48.594  47.877  45.264  0.00  0.00     0.133 C 
ATOM     11  C11 <0> d          48.711  49.575  42.895  0.00  0.00     0.034 C 
ATOM     12  C12 <0> d          47.602  49.761  43.933  0.00  0.00     0.056 C 
ATOM     13  C13 <0> d          47.801  48.958  45.180  0.00  0.00     0.045 C 
ATOM     14 Cl1  <0> d          46.945  49.451  46.608  0.00  0.00    -0.086 Cl
ATOM     15  C16 <0> d          48.734  47.094  46.501  0.00  0.00     0.228 C 
ATOM     16  O3  <0> d          49.588  47.389  47.315  0.00  0.00    -0.643 OA
ATOM     17  O4  <0> d          47.913  46.050  46.734  0.00  0.00    -0.643 OA
ATOM     18  C7  <0> d          51.657  45.783  39.259  0.00  0.00     0.307 C 
ATOM     19  C4  <0> d          51.116  46.543  38.076  0.00  0.00    -0.019 A 
ATOM     20  C3  <0> d          51.908  47.474  37.431  0.00  0.00     0.010 A 
ATOM     21  C2  <0> d          51.412  48.172  36.345  0.00  0.00     0.001 A 
ATOM     22  C1  <0> d          50.122  47.938  35.904  0.00  0.00     0.000 A 
ATOM     23  C6  <0> d          49.331  47.006  36.550  0.00  0.00     0.001 A 
ATOM     24  C5  <0> d          49.829  46.305  37.632  0.00  0.00     0.010 A 
ATOM     25  N3  <0> d          50.857  44.560  39.449  0.00  0.00    -0.062 N 
ATOM     26  H14 <0> d          50.316  44.363  38.609  0.00  0.00     0.275 HD
ATOM     27  H15 <0> d          51.468  43.772  39.652  0.00  0.00     0.275 HD
ATOM     28  H16 <0> d          50.214  44.698  40.237  0.00  0.00     0.275 HD
ENDMDL
MODEL 3
REMARK VINA RESULT:      -8.6      2.286      2.932
ATOM      1  C8  <0> d          51.120  49.542  38.534  0.00  0.00     0.253 C 
ATOM      2  O1  <0> d          51.899  48.692  38.154  0.00  0.00    -0.271 OA
ATOM      3  N1  <0> d          50.465  49.380  39.700  0.00  0.00    -0.344 N 
ATOM      4  H9  <0> d          49.842  50.059  40.003  0.00  0.00     0.163 HD
ATOM      5  C9  <0> d          50.689  48.179  40.509  0.00  0.00     0.200 C 
ATOM      6  C15 <0> d          49.433  47.577  41.076  0.00  0.00     0.250 C 
ATOM      7  N2  <0> d          49.934  47.530  42.296  0.00  0.00    -0.302 N 
ATOM      8  O2  <0> d          48.366  47.257  40.595  0.00  0.00    -0.271 OA
ATOM      9  C10 <0> d          51.035  48.465  41.955  0.00  0.00     0.125 C 
ATOM     10  C14 <0> d          49.768  46.887  43.543  0.00  0.00     0.133 C 
ATOM     11  C11 <0> d          52.323  47.822  42.492  0.00  0.00     0.034 C 
ATOM     12  C12 <0> d          52.141  47.575  43.991  0.00  0.00     0.056 C 
ATOM     13  C13 <0> d          50.850  46.905  44.340  0.00  0.00     0.045 C 
ATOM     14 Cl1  <0> d          50.740  46.106  45.878  0.00  0.00    -0.086 Cl
ATOM     15  C16 <0> d          48.505  46.247  43.941  0.00  0.00     0.228 C 
ATOM     16  O3  <0> d          47.709  46.851  44.634  0.00  0.00    -0.643 OA
ATOM     17  O4  <0> d          48.229  44.992  43.536  0.00  0.00    -0.643 OA
ATOM     18  C7  <0> d          50.889  50.777  37.703  0.00  0.00     0.307 C 
ATOM     19  C4  <0> d          51.889  51.836  38.090  0.00  0.00    -0.019 A 
ATOM     20  C3  <0> d          52.791  51.594  39.109  0.00  0.00     0.010 A 
ATOM     21  C2  <0> d          53.709  52.566  39.465  0.00  0.00     0.001 A 
ATOM     22  C1  <0> d          53.725  53.778  38.801  0.00  0.00     0.000 A 
ATOM     23  C6  <0> d          52.822  54.018  37.781  0.00  0.00     0.001 A 
ATOM     24  C5  <0> d          51.908  53.045  37.423  0.00  0.00     0.010 A 
ATOM     25  N3  <0> d          49.529  51.299  37.922  0.00  0.00    -0.062 N 
ATOM     26  H14 <0> d          49.364  52.105  37.321  0.00  0.00     0.275 HD
ATOM     27  H15 <0> d          48.841  50.577  37.718  0.00  0.00     0.275 HD
ATOM     28  H16 <0> d          49.432  51.587  38.902  0.00  0.00     0.275 HD
ENDMDL
MODEL 4
REMARK VINA RESULT:      -8.3      3.361      8.218
ATOM      1  C8  <0> d          50.610  46.951  45.064  0.00  0.00     0.253 C 
ATOM      2  O1  <0> d          51.650  46.329  45.117  0.00  0.00    -0.271 OA
ATOM      3  N1  <0> d          50.282  47.618  43.939  0.00  0.00    -0.344 N 
ATOM      4  H9  <0> d          49.450  48.115  43.897  0.00  0.00     0.163 HD
ATOM      5  C9  <0> d          51.182  47.595  42.784  0.00  0.00     0.200 C 
ATOM      6  C15 <0> d          51.040  48.783  41.872  0.00  0.00     0.250 C 
ATOM      7  N2  <0> d          50.927  48.024  40.799  0.00  0.00    -0.302 N 
ATOM      8  O2  <0> d          51.032  49.983  42.054  0.00  0.00    -0.271 OA
ATOM      9  C10 <0> d          50.651  46.808  41.604  0.00  0.00     0.125 C 
ATOM     10  C14 <0> d          51.058  48.057  39.393  0.00  0.00     0.133 C 
ATOM     11  C11 <0> d          51.569  45.708  41.046  0.00  0.00     0.034 C 
ATOM     12  C12 <0> d          51.277  45.561  39.551  0.00  0.00     0.056 C 
ATOM     13  C13 <0> d          51.243  46.860  38.810  0.00  0.00     0.045 C 
ATOM     14 Cl1  <0> d          51.448  46.817  37.087  0.00  0.00    -0.086 Cl
ATOM     15  C16 <0> d          50.995  49.308  38.623  0.00  0.00     0.228 C 
ATOM     16  O3  <0> d          49.923  49.731  38.235  0.00  0.00    -0.643 OA
ATOM     17  O4  <0> d          52.126  49.988  38.347  0.00  0.00    -0.643 OA
ATOM     18  C7  <0> d          49.684  46.973  46.252  0.00  0.00     0.307 C 
ATOM     19  C4  <0> d          48.572  45.979  46.040  0.00  0.00    -0.019 A 
ATOM     20  C3  <0> d          47.259  46.355  46.248  0.00  0.00     0.010 A 
ATOM     21  C2  <0> d          46.238  45.443  46.054  0.00  0.00     0.001 A 
ATOM     22  C1  <0> d          46.531  44.154  45.649  0.00  0.00     0.000 A 
ATOM     23  C6  <0> d          47.846  43.778  45.440  0.00  0.00     0.001 A 
ATOM     24  C5  <0> d          48.865  44.692  45.630  0.00  0.00     0.010 A 
ATOM     25  N3  <0> d          49.100  48.315  46.426  0.00  0.00    -0.062 N 
ATOM     26  H14 <0> d          49.179  48.606  47.399  0.00  0.00     0.275 HD
ATOM     27  H15 <0> d          49.583  48.985  45.831  0.00  0.00     0.275 HD
ATOM     28  H16 <0> d          48.109  48.288  46.164  0.00  0.00     0.275 HD
ENDMDL
MODEL 5
REMARK VINA RESULT:      -8.2      2.292      3.577
ATOM      1  C8  <0> d          50.965  49.574  38.092  0.00  0.00     0.253 C 
ATOM      2  O1  <0> d          51.354  48.447  37.867  0.00  0.00    -0.271 OA
ATOM      3  N1  <0> d          50.363  49.857  39.264  0.00  0.00    -0.344 N 
ATOM      4  H9  <0> d          50.052  50.758  39.443  0.00  0.00     0.163 HD
ATOM      5  C9  <0> d          50.173  48.804  40.264  0.00  0.00     0.200 C 
ATOM      6  C15 <0> d          49.677  49.303  41.594  0.00  0.00     0.250 C 
ATOM      7  N2  <0> d          50.623  48.663  42.255  0.00  0.00    -0.302 N 
ATOM      8  O2  <0> d          48.758  50.020  41.930  0.00  0.00    -0.271 OA
ATOM      9  C10 <0> d          51.430  48.446  41.028  0.00  0.00     0.125 C 
ATOM     10  C14 <0> d          50.946  48.171  43.540  0.00  0.00     0.133 C 
ATOM     11  C11 <0> d          51.828  46.961  41.037  0.00  0.00     0.034 C 
ATOM     12  C12 <0> d          52.570  46.676  42.344  0.00  0.00     0.056 C 
ATOM     13  C13 <0> d          51.875  47.201  43.561  0.00  0.00     0.045 C 
ATOM     14 Cl1  <0> d          52.303  46.517  45.098  0.00  0.00    -0.086 Cl
ATOM     15  C16 <0> d          50.312  48.684  44.764  0.00  0.00     0.228 C 
ATOM     16  O3  <0> d          49.396  48.072  45.277  0.00  0.00    -0.643 OA
ATOM     17  O4  <0> d          50.750  49.832  45.320  0.00  0.00    -0.643 OA
ATOM     18  C7  <0> d          51.161  50.657  37.063  0.00  0.00     0.307 C 
ATOM     19  C4  <0> d          51.983  51.770  37.657  0.00  0.00    -0.019 A 
ATOM     20  C3  <0> d          51.860  53.058  37.169  0.00  0.00     0.010 A 
ATOM     21  C2  <0> d          52.614  54.080  37.714  0.00  0.00     0.001 A 
ATOM     22  C1  <0> d          53.491  53.815  38.750  0.00  0.00     0.000 A 
ATOM     23  C6  <0> d          53.613  52.527  39.239  0.00  0.00     0.001 A 
ATOM     24  C5  <0> d          52.856  51.506  38.696  0.00  0.00     0.010 A 
ATOM     25  N3  <0> d          49.860  51.199  36.631  0.00  0.00    -0.062 N 
ATOM     26  H14 <0> d          49.904  52.216  36.588  0.00  0.00     0.275 HD
ATOM     27  H15 <0> d          49.616  50.830  35.715  0.00  0.00     0.275 HD
ATOM     28  H16 <0> d          49.139  50.924  37.308  0.00  0.00     0.275 HD
ENDMDL
MODEL 6
REMARK VINA RESULT:      -8.1      2.993      4.523
ATOM      1  C8  <0> d          51.310  47.922  43.884  0.00  0.00     0.253 C 
ATOM      2  O1  <0> d          51.668  48.878  44.539  0.00  0.00    -0.271 OA
ATOM      3  N1  <0> d          50.028  47.510  43.938  0.00  0.00    -0.344 N 
ATOM      4  H9  <0> d          49.743  46.745  43.415  0.00  0.00     0.163 HD
ATOM      5  C9  <0> d          49.067  48.214  44.791  0.00  0.00     0.200 C 
ATOM      6  C15 <0> d          47.737  47.523  44.917  0.00  0.00     0.250 C 
ATOM      7  N2  <0> d          47.070  48.619  44.614  0.00  0.00    -0.302 N 
ATOM      8  O2  <0> d          47.406  46.388  45.194  0.00  0.00    -0.271 OA
ATOM      9  C10 <0> d          48.279  49.289  44.073  0.00  0.00     0.125 C 
ATOM     10  C14 <0> d          45.792  49.213  44.728  0.00  0.00     0.133 C 
ATOM     11  C11 <0> d          48.306  50.693  44.699  0.00  0.00     0.034 C 
ATOM     12  C12 <0> d          46.987  51.390  44.358  0.00  0.00     0.056 C 
ATOM     13  C13 <0> d          45.775  50.552  44.619  0.00  0.00     0.045 C 
ATOM     14 Cl1  <0> d          44.249  51.362  44.781  0.00  0.00    -0.086 Cl
ATOM     15  C16 <0> d          44.571  48.423  44.948  0.00  0.00     0.228 C 
ATOM     16  O3  <0> d          44.207  48.169  46.080  0.00  0.00    -0.643 OA
ATOM     17  O4  <0> d          43.854  47.983  43.895  0.00  0.00    -0.643 OA
ATOM     18  C7  <0> d          52.299  47.197  43.007  0.00  0.00     0.307 C 
ATOM     19  C4  <0> d          52.041  47.549  41.565  0.00  0.00    -0.019 A 
ATOM     20  C3  <0> d          52.071  48.870  41.159  0.00  0.00     0.010 A 
ATOM     21  C2  <0> d          51.835  49.193  39.836  0.00  0.00     0.001 A 
ATOM     22  C1  <0> d          51.569  48.194  38.917  0.00  0.00     0.000 A 
ATOM     23  C6  <0> d          51.540  46.873  39.324  0.00  0.00     0.001 A 
ATOM     24  C5  <0> d          51.781  46.550  40.646  0.00  0.00     0.010 A 
ATOM     25  N3  <0> d          52.167  45.740  43.176  0.00  0.00    -0.062 N 
ATOM     26  H14 <0> d          51.622  45.534  44.012  0.00  0.00     0.275 HD
ATOM     27  H15 <0> d          51.708  45.335  42.363  0.00  0.00     0.275 HD
ATOM     28  H16 <0> d          53.101  45.326  43.275  0.00  0.00     0.275 HD
ENDMDL
MODEL 7
REMARK VINA RESULT:      -8.1      2.854      3.781
ATOM      1  C8  <0> d          51.853  47.880  37.712  0.00  0.00     0.253 C 
ATOM      2  O1  <0> d          51.629  46.723  37.425  0.00  0.00    -0.271 OA
ATOM      3  N1  <0> d          51.952  48.246  39.005  0.00  0.00    -0.344 N 
ATOM      4  H9  <0> d          52.131  49.171  39.234  0.00  0.00     0.163 HD
ATOM      5  C9  <0> d          51.786  47.248  40.065  0.00  0.00     0.200 C 
ATOM      6  C15 <0> d          50.363  47.065  40.518  0.00  0.00     0.250 C 
ATOM      7  N2  <0> d          50.686  47.204  41.790  0.00  0.00    -0.302 N 
ATOM      8  O2  <0> d          49.317  46.866  39.935  0.00  0.00    -0.271 OA
ATOM      9  C10 <0> d          52.010  47.789  41.461  0.00  0.00     0.125 C 
ATOM     10  C14 <0> d          50.222  46.920  43.094  0.00  0.00     0.133 C 
ATOM     11  C11 <0> d          53.034  47.041  42.329  0.00  0.00     0.034 C 
ATOM     12  C12 <0> d          52.618  47.194  43.793  0.00  0.00     0.056 C 
ATOM     13  C13 <0> d          51.172  46.903  44.044  0.00  0.00     0.045 C 
ATOM     14 Cl1  <0> d          50.690  46.527  45.669  0.00  0.00    -0.086 Cl
ATOM     15  C16 <0> d          48.804  46.663  43.390  0.00  0.00     0.228 C 
ATOM     16  O3  <0> d          48.072  47.582  43.701  0.00  0.00    -0.643 OA
ATOM     17  O4  <0> d          48.317  45.409  43.315  0.00  0.00    -0.643 OA
ATOM     18  C7  <0> d          52.024  48.906  36.622  0.00  0.00     0.307 C 
ATOM     19  C4  <0> d          51.275  50.160  36.992  0.00  0.00    -0.019 A 
ATOM     20  C3  <0> d          51.965  51.275  37.427  0.00  0.00     0.010 A 
ATOM     21  C2  <0> d          51.277  52.426  37.766  0.00  0.00     0.001 A 
ATOM     22  C1  <0> d          49.898  52.461  37.669  0.00  0.00     0.000 A 
ATOM     23  C6  <0> d          49.209  51.345  37.233  0.00  0.00     0.001 A 
ATOM     24  C5  <0> d          49.897  50.196  36.889  0.00  0.00     0.010 A 
ATOM     25  N3  <0> d          51.500  48.394  35.344  0.00  0.00    -0.062 N 
ATOM     26  H14 <0> d          50.493  48.252  35.413  0.00  0.00     0.275 HD
ATOM     27  H15 <0> d          51.699  49.054  34.595  0.00  0.00     0.275 HD
ATOM     28  H16 <0> d          51.950  47.497  35.130  0.00  0.00     0.275 HD
ENDMDL
MODEL 8
REMARK VINA RESULT:      -8.1      2.777      3.052
ATOM      1  C8  <0> d          50.565  47.599  39.302  0.00  0.00     0.253 C 
ATOM      2  O1  <0> d          50.607  48.796  39.497  0.00  0.00    -0.271 OA
ATOM      3  N1  <0> d          50.525  46.749  40.347  0.00  0.00    -0.344 N 
ATOM      4  H9  <0> d          50.492  45.792  40.191  0.00  0.00     0.163 HD
ATOM      5  C9  <0> d          50.537  47.268  41.717  0.00  0.00     0.200 C 
ATOM      6  C15 <0> d          50.785  46.220  42.768  0.00  0.00     0.250 C 
ATOM      7  N2  <0> d          49.739  46.597  43.477  0.00  0.00    -0.302 N 
ATOM      8  O2  <0> d          51.627  45.357  42.909  0.00  0.00    -0.271 OA
ATOM      9  C10 <0> d          49.165  47.372  42.348  0.00  0.00     0.125 C 
ATOM     10  C14 <0> d          49.194  46.531  44.779  0.00  0.00     0.133 C 
ATOM     11  C11 <0> d          48.778  48.743  42.924  0.00  0.00     0.034 C 
ATOM     12  C12 <0> d          47.815  48.513  44.091  0.00  0.00     0.056 C 
ATOM     13  C13 <0> d          48.280  47.474  45.062  0.00  0.00     0.045 C 
ATOM     14 Cl1  <0> d          47.586  47.484  46.653  0.00  0.00    -0.086 Cl
ATOM     15  C16 <0> d          49.596  45.504  45.753  0.00  0.00     0.228 C 
ATOM     16  O3  <0> d          50.509  45.723  46.525  0.00  0.00    -0.643 OA
ATOM     17  O4  <0> d          48.951  44.321  45.790  0.00  0.00    -0.643 OA
ATOM     18  C7  <0> d          50.552  47.066  37.893  0.00  0.00     0.307 C 
ATOM     19  C4  <0> d          50.940  48.165  36.938  0.00  0.00    -0.019 A 
ATOM     20  C3  <0> d          49.965  48.970  36.379  0.00  0.00     0.010 A 
ATOM     21  C2  <0> d          50.321  49.979  35.502  0.00  0.00     0.001 A 
ATOM     22  C1  <0> d          51.651  50.184  35.186  0.00  0.00     0.000 A 
ATOM     23  C6  <0> d          52.625  49.378  35.747  0.00  0.00     0.001 A 
ATOM     24  C5  <0> d          52.270  48.372  36.627  0.00  0.00     0.010 A 
ATOM     25  N3  <0> d          49.209  46.575  37.539  0.00  0.00    -0.062 N 
ATOM     26  H14 <0> d          48.593  46.631  38.349  0.00  0.00     0.275 HD
ATOM     27  H15 <0> d          48.823  47.132  36.780  0.00  0.00     0.275 HD
ATOM     28  H16 <0> d          49.276  45.597  37.237  0.00  0.00     0.275 HD
ENDMDL
MODEL 9
REMARK VINA RESULT:      -8.0      2.128      3.254
ATOM      1  C8  <0> d          50.300  50.403  40.901  0.00  0.00     0.253 C 
ATOM      2  O1  <0> d          49.467  51.285  40.887  0.00  0.00    -0.271 OA
ATOM      3  N1  <0> d          50.493  49.677  42.021  0.00  0.00    -0.344 N 
ATOM      4  H9  <0> d          51.159  48.972  42.031  0.00  0.00     0.163 HD
ATOM      5  C9  <0> d          49.700  49.955  43.221  0.00  0.00     0.200 C 
ATOM      6  C15 <0> d          50.207  49.273  44.462  0.00  0.00     0.250 C 
ATOM      7  N2  <0> d          49.017  48.783  44.752  0.00  0.00    -0.302 N 
ATOM      8  O2  <0> d          51.296  49.201  44.994  0.00  0.00    -0.271 OA
ATOM      9  C10 <0> d          48.497  49.052  43.388  0.00  0.00     0.125 C 
ATOM     10  C14 <0> d          48.258  48.261  45.825  0.00  0.00     0.133 C 
ATOM     11  C11 <0> d          47.139  49.746  43.577  0.00  0.00     0.034 C 
ATOM     12  C12 <0> d          46.253  48.833  44.426  0.00  0.00     0.056 C 
ATOM     13  C13 <0> d          46.926  48.310  45.656  0.00  0.00     0.045 C 
ATOM     14 Cl1  <0> d          45.921  47.720  46.942  0.00  0.00    -0.086 Cl
ATOM     15  C16 <0> d          48.881  47.705  47.035  0.00  0.00     0.228 C 
ATOM     16  O3  <0> d          49.238  48.446  47.931  0.00  0.00    -0.643 OA
ATOM     17  O4  <0> d          49.053  46.373  47.153  0.00  0.00    -0.643 OA
ATOM     18  C7  <0> d          51.115  50.117  39.666  0.00  0.00     0.307 C 
ATOM     19  C4  <0> d          50.727  48.771  39.112  0.00  0.00    -0.019 A 
ATOM     20  C3  <0> d          51.611  47.710  39.190  0.00  0.00     0.010 A 
ATOM     21  C2  <0> d          51.256  46.475  38.681  0.00  0.00     0.001 A 
ATOM     22  C1  <0> d          50.016  46.299  38.095  0.00  0.00     0.000 A 
ATOM     23  C6  <0> d          49.133  47.360  38.017  0.00  0.00     0.001 A 
ATOM     24  C5  <0> d          49.486  48.594  38.530  0.00  0.00     0.010 A 
ATOM     25  N3  <0> d          52.552  50.107  39.988  0.00  0.00    -0.062 N 
ATOM     26  H14 <0> d          52.889  51.061  40.106  0.00  0.00     0.275 HD
ATOM     27  H15 <0> d          52.714  49.582  40.845  0.00  0.00     0.275 HD
ATOM     28  H16 <0> d          53.067  49.663  39.220  0.00  0.00     0.275 HD
ENDMDL
MODEL 10
REMARK VINA RESULT:      -8.0      3.176      3.893
ATOM      1  C8  <0> d          49.179  49.377  40.190  0.00  0.00     0.253 C 
ATOM      2  O1  <0> d          50.270  49.886  40.341  0.00  0.00    -0.271 OA
ATOM      3  N1  <0> d          48.588  48.736  41.218  0.00  0.00    -0.344 N 
ATOM      4  H9  <0> d          47.716  48.329  41.097  0.00  0.00     0.163 HD
ATOM      5  C9  <0> d          49.263  48.648  42.514  0.00  0.00     0.200 C 
ATOM      6  C15 <0> d          48.915  47.418  43.306  0.00  0.00     0.250 C 
ATOM      7  N2  <0> d          48.637  48.118  44.389  0.00  0.00    -0.302 N 
ATOM      8  O2  <0> d          48.897  46.232  43.047  0.00  0.00    -0.271 OA
ATOM      9  C10 <0> d          48.557  49.391  43.629  0.00  0.00     0.125 C 
ATOM     10  C14 <0> d          48.510  47.998  45.791  0.00  0.00     0.133 C 
ATOM     11  C11 <0> d          49.397  50.411  44.413  0.00  0.00     0.034 C 
ATOM     12  C12 <0> d          48.845  50.486  45.838  0.00  0.00     0.056 C 
ATOM     13  C13 <0> d          48.630  49.149  46.474  0.00  0.00     0.045 C 
ATOM     14 Cl1  <0> d          48.520  49.083  48.205  0.00  0.00    -0.086 Cl
ATOM     15  C16 <0> d          48.263  46.708  46.454  0.00  0.00     0.228 C 
ATOM     16  O3  <0> d          49.196  46.049  46.868  0.00  0.00    -0.643 OA
ATOM     17  O4  <0> d          47.001  46.259  46.604  0.00  0.00    -0.643 OA
ATOM     18  C7  <0> d          48.484  49.468  38.856  0.00  0.00     0.307 C 
ATOM     19  C4  <0> d          49.069  48.446  37.916  0.00  0.00    -0.019 A 
ATOM     20  C3  <0> d          49.576  48.843  36.693  0.00  0.00     0.010 A 
ATOM     21  C2  <0> d          50.114  47.905  35.830  0.00  0.00     0.001 A 
ATOM     22  C1  <0> d          50.147  46.571  36.192  0.00  0.00     0.000 A 
ATOM     23  C6  <0> d          49.641  46.176  37.416  0.00  0.00     0.001 A 
ATOM     24  C5  <0> d          49.107  47.114  38.281  0.00  0.00     0.010 A 
ATOM     25  N3  <0> d          48.657  50.810  38.274  0.00  0.00    -0.062 N 
ATOM     26  H14 <0> d          47.805  51.095  37.795  0.00  0.00     0.275 HD
ATOM     27  H15 <0> d          48.876  51.482  39.007  0.00  0.00     0.275 HD
ATOM     28  H16 <0> d          49.429  50.787  37.599  0.00  0.00     0.275 HD
ENDMDL
