MODEL
REMARK VINA RESULT:      -9.1    
REMARK AD4  RESULT:      -9.81   
REMARK FIN. RESULT:      -9.45   
ATOM      1  C1  <0> d          51.508  51.774  40.471  0.00  0.00     0.021 C 
ATOM      2  C2  <0> d          52.235  51.249  39.234  0.00  0.00    -0.012 C 
ATOM      3  C3  <0> d          53.741  51.507  39.397  0.00  0.00     0.022 C 
ATOM      4  C4  <0> d          54.015  53.002  39.544  0.00  0.00     0.084 C 
ATOM      5  C5  <0> d          53.378  53.755  38.406  0.00  0.00     0.149 C 
ATOM      6  O1  <0> d          53.795  54.857  38.107  0.00  0.00    -0.293 OA
ATOM      7  C6  <0> d          52.315  53.198  37.683  0.00  0.00     0.058 C 
ATOM      8  C7  <0> d          51.755  52.012  38.024  0.00  0.00    -0.046 C 
ATOM      9  C8  <0> d          50.661  51.486  37.215  0.00  0.00     0.004 C 
ATOM     10  C9  <0> d          50.142  50.292  37.451  0.00  0.00    -0.021 C 
ATOM     11  C10 <0> d          50.652  49.363  38.514  0.00  0.00     0.018 C 
ATOM     12  C11 <0> d          52.020  49.753  39.042  0.00  0.00     0.006 C 
ATOM     13  C12 <0> d          52.468  48.956  40.256  0.00  0.00     0.007 C 
ATOM     14  C13 <0> d          51.388  48.694  41.308  0.00  0.00     0.013 C 
ATOM     15  C14 <0> d          50.143  48.159  40.642  0.00  0.00    -0.009 C 
ATOM     16  C15 <0> d          49.646  49.215  39.628  0.00  0.00     0.005 C 
ATOM     17  C16 <0> d          48.277  48.646  39.225  0.00  0.00     0.009 C 
ATOM     18  C17 <0> d          47.706  48.110  40.564  0.00  0.00     0.039 C 
ATOM     19  C18 <0> d          48.912  47.938  41.524  0.00  0.00     0.066 C 
ATOM     20  C22 <0> d          50.463  46.829  39.950  0.00  0.00     0.019 C 
ATOM     21  C19 <0> d          48.834  48.957  42.656  0.00  0.00     0.049 C 
ATOM     22  C20 <0> d          48.709  48.225  43.994  0.00  0.00     0.116 C 
ATOM     23  C21 <0> d          49.716  48.782  44.967  0.00  0.00     0.172 C 
ATOM     24  O2  <0> d          50.534  49.589  44.595  0.00  0.00    -0.648 OA
ATOM     25  O4  <0> d          49.702  48.381  46.248  0.00  0.00    -0.648 OA
ATOM     26  O3  <0> d          48.930  46.609  42.052  0.00  0.00    -0.389 OA
ATOM     27  H26 <0> d          48.133  46.097  41.857  0.00  0.00     0.210 HD
ENDMDL
MODEL
REMARK VINA RESULT:      -8.7    
REMARK AD4  RESULT:      -9.84   
REMARK FIN. RESULT:      -9.25   
ATOM      1  C1  <0> d          48.803  47.716  40.729  0.00  0.00     0.021 C 
ATOM      2  C2  <0> d          49.854  48.770  40.382  0.00  0.00    -0.012 C 
ATOM      3  C3  <0> d          49.199  49.858  39.517  0.00  0.00     0.022 C 
ATOM      4  C4  <0> d          48.649  49.255  38.227  0.00  0.00     0.084 C 
ATOM      5  C5  <0> d          49.726  48.471  37.526  0.00  0.00     0.149 C 
ATOM      6  O1  <0> d          49.634  48.261  36.331  0.00  0.00    -0.293 OA
ATOM      7  C6  <0> d          50.836  47.988  38.230  0.00  0.00     0.058 C 
ATOM      8  C7  <0> d          50.950  48.120  39.573  0.00  0.00    -0.046 C 
ATOM      9  C8  <0> d          52.142  47.606  40.238  0.00  0.00     0.004 C 
ATOM     10  C9  <0> d          52.343  47.791  41.533  0.00  0.00    -0.021 C 
ATOM     11  C10 <0> d          51.413  48.575  42.412  0.00  0.00     0.018 C 
ATOM     12  C11 <0> d          50.431  49.428  41.630  0.00  0.00     0.006 C 
ATOM     13  C12 <0> d          49.348  50.069  42.484  0.00  0.00     0.007 C 
ATOM     14  C13 <0> d          48.749  49.174  43.571  0.00  0.00     0.013 C 
ATOM     15  C14 <0> d          49.856  48.520  44.363  0.00  0.00    -0.009 C 
ATOM     16  C15 <0> d          50.709  47.672  43.392  0.00  0.00     0.005 C 
ATOM     17  C16 <0> d          51.615  46.898  44.363  0.00  0.00     0.009 C 
ATOM     18  C17 <0> d          50.660  46.536  45.530  0.00  0.00     0.039 C 
ATOM     19  C18 <0> d          49.450  47.501  45.430  0.00  0.00     0.066 C 
ATOM     20  C22 <0> d          50.701  49.599  45.050  0.00  0.00     0.019 C 
ATOM     21  C19 <0> d          48.194  46.733  45.032  0.00  0.00     0.049 C 
ATOM     22  C20 <0> d          48.143  45.407  45.794  0.00  0.00     0.116 C 
ATOM     23  C21 <0> d          47.984  44.271  44.816  0.00  0.00     0.172 C 
ATOM     24  O2  <0> d          47.845  43.141  45.220  0.00  0.00    -0.648 OA
ATOM     25  O4  <0> d          47.996  44.517  43.497  0.00  0.00    -0.648 OA
ATOM     26  O3  <0> d          49.250  48.165  46.680  0.00  0.00    -0.389 OA
ATOM     27  H26 <0> d          49.646  47.709  47.436  0.00  0.00     0.210 HD
ENDMDL
MODEL
REMARK VINA RESULT:      -8.6    
REMARK AD4  RESULT:      -9.84   
REMARK FIN. RESULT:      -9.20   
ATOM      1  C1  <0> d          48.841  47.643  40.740  0.00  0.00     0.021 C 
ATOM      2  C2  <0> d          49.769  48.843  40.562  0.00  0.00    -0.012 C 
ATOM      3  C3  <0> d          49.075  49.877  39.662  0.00  0.00     0.022 C 
ATOM      4  C4  <0> d          48.764  49.274  38.295  0.00  0.00     0.084 C 
ATOM      5  C5  <0> d          50.011  48.677  37.700  0.00  0.00     0.149 C 
ATOM      6  O1  <0> d          50.087  48.518  36.497  0.00  0.00    -0.293 OA
ATOM      7  C6  <0> d          51.090  48.309  38.516  0.00  0.00     0.058 C 
ATOM      8  C7  <0> d          51.028  48.387  39.868  0.00  0.00    -0.046 C 
ATOM      9  C8  <0> d          52.197  48.001  40.653  0.00  0.00     0.004 C 
ATOM     10  C9  <0> d          52.220  48.144  41.968  0.00  0.00    -0.021 C 
ATOM     11  C10 <0> d          51.096  48.753  42.756  0.00  0.00     0.018 C 
ATOM     12  C11 <0> d          50.103  49.507  41.892  0.00  0.00     0.006 C 
ATOM     13  C12 <0> d          48.852  49.953  42.630  0.00  0.00     0.007 C 
ATOM     14  C13 <0> d          48.261  48.933  43.605  0.00  0.00     0.013 C 
ATOM     15  C14 <0> d          49.348  48.390  44.501  0.00  0.00    -0.009 C 
ATOM     16  C15 <0> d          50.415  47.713  43.612  0.00  0.00     0.005 C 
ATOM     17  C16 <0> d          51.302  47.018  44.656  0.00  0.00     0.009 C 
ATOM     18  C17 <0> d          50.278  46.474  45.686  0.00  0.00     0.039 C 
ATOM     19  C18 <0> d          48.967  47.273  45.474  0.00  0.00     0.066 C 
ATOM     20  C22 <0> d          49.953  49.536  45.324  0.00  0.00     0.019 C 
ATOM     21  C19 <0> d          47.883  46.367  44.901  0.00  0.00     0.049 C 
ATOM     22  C20 <0> d          47.465  45.340  45.955  0.00  0.00     0.116 C 
ATOM     23  C21 <0> d          47.256  44.000  45.297  0.00  0.00     0.172 C 
ATOM     24  O2  <0> d          48.054  43.110  45.473  0.00  0.00    -0.648 OA
ATOM     25  O4  <0> d          46.184  43.795  44.518  0.00  0.00    -0.648 OA
ATOM     26  O3  <0> d          48.536  47.841  46.715  0.00  0.00    -0.389 OA
ATOM     27  H26 <0> d          49.252  48.214  47.247  0.00  0.00     0.210 HD
ENDMDL
