MODEL
REMARK VINA RESULT:      -8.6    
REMARK AD4  RESULT:      -7.73   
REMARK FIN. RESULT:      -8.15   
ATOM      1  C8  <0> d          50.707  49.624  38.752  0.00  0.00     0.253 C 
ATOM      2  O1  <0> d          51.312  48.702  38.246  0.00  0.00    -0.271 OA
ATOM      3  N1  <0> d          50.294  49.535  40.032  0.00  0.00    -0.344 N 
ATOM      4  H9  <0> d          49.811  50.272  40.437  0.00  0.00     0.163 HD
ATOM      5  C9  <0> d          50.573  48.326  40.812  0.00  0.00     0.200 C 
ATOM      6  C15 <0> d          49.341  47.591  41.264  0.00  0.00     0.250 C 
ATOM      7  N2  <0> d          49.759  47.537  42.515  0.00  0.00    -0.302 N 
ATOM      8  O2  <0> d          48.345  47.197  40.695  0.00  0.00    -0.271 OA
ATOM      9  C10 <0> d          50.789  48.581  42.288  0.00  0.00     0.125 C 
ATOM     10  C14 <0> d          49.566  46.829  43.723  0.00  0.00     0.133 C 
ATOM     11  C11 <0> d          52.091  48.034  42.895  0.00  0.00     0.034 C 
ATOM     12  C12 <0> d          51.829  47.709  44.367  0.00  0.00     0.056 C 
ATOM     13  C13 <0> d          50.584  46.910  44.597  0.00  0.00     0.045 C 
ATOM     14 Cl1  <0> d          50.442  46.041  46.092  0.00  0.00    -0.086 Cl
ATOM     15  C16 <0> d          48.344  46.062  44.004  0.00  0.00     0.228 C 
ATOM     16  O3  <0> d          47.478  46.536  44.712  0.00  0.00    -0.643 OA
ATOM     17  O4  <0> d          48.183  44.833  43.473  0.00  0.00    -0.643 OA
ATOM     18  C7  <0> d          50.419  50.867  37.951  0.00  0.00     0.307 C 
ATOM     19  C4  <0> d          51.508  51.881  38.191  0.00  0.00    -0.019 A 
ATOM     20  C3  <0> d          52.428  51.681  39.203  0.00  0.00     0.010 A 
ATOM     21  C2  <0> d          53.426  52.612  39.423  0.00  0.00     0.001 A 
ATOM     22  C1  <0> d          53.505  53.742  38.630  0.00  0.00     0.000 A 
ATOM     23  C6  <0> d          52.585  53.941  37.617  0.00  0.00     0.001 A 
ATOM     24  C5  <0> d          51.589  53.008  37.394  0.00  0.00     0.010 A 
ATOM     25  N3  <0> d          49.126  51.449  38.348  0.00  0.00    -0.062 N 
ATOM     26  H14 <0> d          48.513  50.719  38.709  0.00  0.00     0.275 HD
ATOM     27  H15 <0> d          49.267  52.158  39.065  0.00  0.00     0.275 HD
ATOM     28  H16 <0> d          48.685  51.881  37.529  0.00  0.00     0.275 HD
ENDMDL
MODEL
REMARK VINA RESULT:      -8.6    
REMARK AD4  RESULT:      -7.73   
REMARK FIN. RESULT:      -8.15   
ATOM      1  C8  <0> d          50.598  49.751  38.942  0.00  0.00     0.253 C 
ATOM      2  O1  <0> d          51.213  48.858  38.400  0.00  0.00    -0.271 OA
ATOM      3  N1  <0> d          50.197  49.612  40.221  0.00  0.00    -0.344 N 
ATOM      4  H9  <0> d          49.705  50.327  40.655  0.00  0.00     0.163 HD
ATOM      5  C9  <0> d          50.499  48.382  40.956  0.00  0.00     0.200 C 
ATOM      6  C15 <0> d          49.284  47.602  41.375  0.00  0.00     0.250 C 
ATOM      7  N2  <0> d          49.698  47.511  42.624  0.00  0.00    -0.302 N 
ATOM      8  O2  <0> d          48.298  47.207  40.787  0.00  0.00    -0.271 OA
ATOM      9  C10 <0> d          50.704  48.586  42.441  0.00  0.00     0.125 C 
ATOM     10  C14 <0> d          49.517  46.754  43.805  0.00  0.00     0.133 C 
ATOM     11  C11 <0> d          52.017  48.047  43.034  0.00  0.00     0.034 C 
ATOM     12  C12 <0> d          51.757  47.660  44.491  0.00  0.00     0.056 C 
ATOM     13  C13 <0> d          50.530  46.826  44.685  0.00  0.00     0.045 C 
ATOM     14 Cl1  <0> d          50.403  45.897  46.147  0.00  0.00    -0.086 Cl
ATOM     15  C16 <0> d          48.311  45.949  44.051  0.00  0.00     0.228 C 
ATOM     16  O3  <0> d          48.197  44.853  43.537  0.00  0.00    -0.643 OA
ATOM     17  O4  <0> d          47.334  46.425  44.848  0.00  0.00    -0.643 OA
ATOM     18  C7  <0> d          50.286  51.017  38.187  0.00  0.00     0.307 C 
ATOM     19  C4  <0> d          51.433  51.982  38.329  0.00  0.00    -0.019 A 
ATOM     20  C3  <0> d          51.511  53.092  37.508  0.00  0.00     0.010 A 
ATOM     21  C2  <0> d          52.564  53.977  37.638  0.00  0.00     0.001 A 
ATOM     22  C1  <0> d          53.541  53.754  38.591  0.00  0.00     0.000 A 
ATOM     23  C6  <0> d          53.464  52.645  39.413  0.00  0.00     0.001 A 
ATOM     24  C5  <0> d          52.408  51.761  39.286  0.00  0.00     0.010 A 
ATOM     25  N3  <0> d          49.063  51.645  38.716  0.00  0.00    -0.062 N 
ATOM     26  H14 <0> d          48.726  52.355  38.067  0.00  0.00     0.275 HD
ATOM     27  H15 <0> d          48.340  50.941  38.853  0.00  0.00     0.275 HD
ATOM     28  H16 <0> d          49.274  52.088  39.617  0.00  0.00     0.275 HD
ENDMDL
