MODEL 1
REMARK VINA RESULT:      -9.0      0.000      0.000
ATOM      1  C8  <0> d          51.411  49.976  40.985  0.00  0.00     0.253 C 
ATOM      2  O1  <0> d          50.827  50.986  41.313  0.00  0.00    -0.271 OA
ATOM      3  N1  <0> d          51.480  48.932  41.835  0.00  0.00    -0.344 N 
ATOM      4  H9  <0> d          51.947  48.123  41.573  0.00  0.00     0.163 HD
ATOM      5  C9  <0> d          50.852  49.019  43.156  0.00  0.00     0.200 C 
ATOM      6  C15 <0> d          51.143  47.846  44.052  0.00  0.00     0.250 C 
ATOM      7  N2  <0> d          49.866  47.664  44.331  0.00  0.00    -0.302 N 
ATOM      8  O2  <0> d          52.164  47.283  44.389  0.00  0.00    -0.271 OA
ATOM      9  C10 <0> d          49.426  48.510  43.194  0.00  0.00     0.125 C 
ATOM     10  C14 <0> d          49.008  47.066  45.283  0.00  0.00     0.133 C 
ATOM     11  C11 <0> d          48.371  49.473  43.762  0.00  0.00     0.034 C 
ATOM     12  C12 <0> d          47.259  48.637  44.399  0.00  0.00     0.056 C 
ATOM     13  C13 <0> d          47.759  47.560  45.311  0.00  0.00     0.045 C 
ATOM     14 Cl1  <0> d          46.652  46.904  46.476  0.00  0.00    -0.086 Cl
ATOM     15  C16 <0> d          49.450  45.982  46.174  0.00  0.00     0.228 C 
ATOM     16  O3  <0> d          49.958  46.246  47.246  0.00  0.00    -0.643 OA
ATOM     17  O4  <0> d          49.291  44.697  45.802  0.00  0.00    -0.643 OA
ATOM     18  C7  <0> d          52.057  49.886  39.627  0.00  0.00     0.307 C 
ATOM     19  C4  <0> d          52.447  51.266  39.165  0.00  0.00    -0.019 A 
ATOM     20  C3  <0> d          53.586  51.869  39.666  0.00  0.00     0.010 A 
ATOM     21  C2  <0> d          53.943  53.135  39.242  0.00  0.00     0.001 A 
ATOM     22  C1  <0> d          53.163  53.798  38.314  0.00  0.00     0.000 A 
ATOM     23  C6  <0> d          52.024  53.195  37.811  0.00  0.00     0.001 A 
ATOM     24  C5  <0> d          51.670  51.927  38.232  0.00  0.00     0.010 A 
ATOM     25  N3  <0> d          51.123  49.300  38.650  0.00  0.00    -0.062 N 
ATOM     26  H14 <0> d          51.014  49.926  37.854  0.00  0.00     0.275 HD
ATOM     27  H15 <0> d          51.473  48.400  38.328  0.00  0.00     0.275 HD
ATOM     28  H16 <0> d          50.210  49.164  39.096  0.00  0.00     0.275 HD
ENDMDL
MODEL 2
REMARK VINA RESULT:      -8.7      3.251      3.686
ATOM      1  C8  <0> d          51.573  46.695  40.466  0.00  0.00     0.253 C 
ATOM      2  O1  <0> d          52.538  47.337  40.822  0.00  0.00    -0.271 OA
ATOM      3  N1  <0> d          50.422  46.767  41.163  0.00  0.00    -0.344 N 
ATOM      4  H9  <0> d          49.650  46.254  40.879  0.00  0.00     0.163 HD
ATOM      5  C9  <0> d          50.337  47.620  42.352  0.00  0.00     0.200 C 
ATOM      6  C15 <0> d          50.317  46.860  43.651  0.00  0.00     0.250 C 
ATOM      7  N2  <0> d          49.251  47.507  44.083  0.00  0.00    -0.302 N 
ATOM      8  O2  <0> d          51.016  45.987  44.121  0.00  0.00    -0.271 OA
ATOM      9  C10 <0> d          48.924  48.014  42.727  0.00  0.00     0.125 C 
ATOM     10  C14 <0> d          48.550  47.833  45.267  0.00  0.00     0.133 C 
ATOM     11  C11 <0> d          48.653  49.519  42.888  0.00  0.00     0.034 C 
ATOM     12  C12 <0> d          47.535  49.693  43.918  0.00  0.00     0.056 C 
ATOM     13  C13 <0> d          47.739  48.900  45.171  0.00  0.00     0.045 C 
ATOM     14 Cl1  <0> d          46.867  49.388  46.592  0.00  0.00    -0.086 Cl
ATOM     15  C16 <0> d          48.694  47.059  46.509  0.00  0.00     0.228 C 
ATOM     16  O3  <0> d          49.568  47.344  47.304  0.00  0.00    -0.643 OA
ATOM     17  O4  <0> d          47.858  46.034  46.767  0.00  0.00    -0.643 OA
ATOM     18  C7  <0> d          51.661  45.818  39.244  0.00  0.00     0.307 C 
ATOM     19  C4  <0> d          51.115  46.562  38.053  0.00  0.00    -0.019 A 
ATOM     20  C3  <0> d          51.920  47.449  37.362  0.00  0.00     0.010 A 
ATOM     21  C2  <0> d          51.419  48.132  36.269  0.00  0.00     0.001 A 
ATOM     22  C1  <0> d          50.114  47.925  35.865  0.00  0.00     0.000 A 
ATOM     23  C6  <0> d          49.309  47.037  36.555  0.00  0.00     0.001 A 
ATOM     24  C5  <0> d          49.811  46.352  37.645  0.00  0.00     0.010 A 
ATOM     25  N3  <0> d          50.878  44.585  39.438  0.00  0.00    -0.062 N 
ATOM     26  H14 <0> d          51.415  43.779  39.124  0.00  0.00     0.275 HD
ATOM     27  H15 <0> d          50.642  44.472  40.422  0.00  0.00     0.275 HD
ATOM     28  H16 <0> d          50.013  44.645  38.890  0.00  0.00     0.275 HD
ENDMDL
MODEL 3
REMARK VINA RESULT:      -8.3      2.285      2.836
ATOM      1  C8  <0> d          50.402  49.996  38.851  0.00  0.00     0.253 C 
ATOM      2  O1  <0> d          49.246  50.327  38.693  0.00  0.00    -0.271 OA
ATOM      3  N1  <0> d          50.776  49.375  39.987  0.00  0.00    -0.344 N 
ATOM      4  H9  <0> d          51.700  49.110  40.113  0.00  0.00     0.163 HD
ATOM      5  C9  <0> d          49.786  49.102  41.033  0.00  0.00     0.200 C 
ATOM      6  C15 <0> d          49.750  50.135  42.127  0.00  0.00     0.250 C 
ATOM      7  N2  <0> d          49.837  49.222  43.075  0.00  0.00    -0.302 N 
ATOM      8  O2  <0> d          49.671  51.345  42.133  0.00  0.00    -0.271 OA
ATOM      9  C10 <0> d          50.282  48.175  42.123  0.00  0.00     0.125 C 
ATOM     10  C14 <0> d          49.585  49.018  44.452  0.00  0.00     0.133 C 
ATOM     11  C11 <0> d          49.418  46.937  42.414  0.00  0.00     0.034 C 
ATOM     12  C12 <0> d          49.595  46.570  43.889  0.00  0.00     0.056 C 
ATOM     13  C13 <0> d          49.456  47.732  44.822  0.00  0.00     0.045 C 
ATOM     14 Cl1  <0> d          49.110  47.398  46.490  0.00  0.00    -0.086 Cl
ATOM     15  C16 <0> d          49.476  50.130  45.408  0.00  0.00     0.228 C 
ATOM     16  O3  <0> d          50.479  50.691  45.805  0.00  0.00    -0.643 OA
ATOM     17  O4  <0> d          48.265  50.527  45.846  0.00  0.00    -0.643 OA
ATOM     18  C7  <0> d          51.419  50.277  37.775  0.00  0.00     0.307 C 
ATOM     19  C4  <0> d          52.139  51.561  38.089  0.00  0.00    -0.019 A 
ATOM     20  C3  <0> d          53.083  51.598  39.099  0.00  0.00     0.010 A 
ATOM     21  C2  <0> d          53.744  52.777  39.388  0.00  0.00     0.001 A 
ATOM     22  C1  <0> d          53.464  53.921  38.664  0.00  0.00     0.000 A 
ATOM     23  C6  <0> d          52.522  53.885  37.652  0.00  0.00     0.001 A 
ATOM     24  C5  <0> d          51.864  52.704  37.362  0.00  0.00     0.010 A 
ATOM     25  N3  <0> d          50.759  50.406  36.463  0.00  0.00    -0.062 N 
ATOM     26  H14 <0> d          49.787  50.683  36.589  0.00  0.00     0.275 HD
ATOM     27  H15 <0> d          51.240  51.102  35.898  0.00  0.00     0.275 HD
ATOM     28  H16 <0> d          50.790  49.502  35.980  0.00  0.00     0.275 HD
ENDMDL
MODEL 4
REMARK VINA RESULT:      -8.3      4.023      8.087
ATOM      1  C8  <0> d          49.912  47.949  45.086  0.00  0.00     0.253 C 
ATOM      2  O1  <0> d          51.051  48.357  45.032  0.00  0.00    -0.271 OA
ATOM      3  N1  <0> d          49.143  47.948  43.978  0.00  0.00    -0.344 N 
ATOM      4  H9  <0> d          48.232  47.621  44.020  0.00  0.00     0.163 HD
ATOM      5  C9  <0> d          49.686  48.445  42.710  0.00  0.00     0.200 C 
ATOM      6  C15 <0> d          48.744  48.307  41.544  0.00  0.00     0.250 C 
ATOM      7  N2  <0> d          49.659  47.722  40.796  0.00  0.00    -0.302 N 
ATOM      8  O2  <0> d          47.585  48.617  41.364  0.00  0.00    -0.271 OA
ATOM      9  C10 <0> d          50.528  47.433  41.963  0.00  0.00     0.125 C 
ATOM     10  C14 <0> d          49.982  47.441  39.448  0.00  0.00     0.133 C 
ATOM     11  C11 <0> d          51.943  47.882  41.563  0.00  0.00     0.034 C 
ATOM     12  C12 <0> d          52.333  47.141  40.281  0.00  0.00     0.056 C 
ATOM     13  C13 <0> d          51.280  47.179  39.218  0.00  0.00     0.045 C 
ATOM     14 Cl1  <0> d          51.766  46.858  37.582  0.00  0.00    -0.086 Cl
ATOM     15  C16 <0> d          48.973  47.433  38.378  0.00  0.00     0.228 C 
ATOM     16  O3  <0> d          48.397  46.401  38.093  0.00  0.00    -0.643 OA
ATOM     17  O4  <0> d          48.686  48.570  37.713  0.00  0.00    -0.643 OA
ATOM     18  C7  <0> d          49.354  47.438  46.389  0.00  0.00     0.307 C 
ATOM     19  C4  <0> d          48.463  46.254  46.124  0.00  0.00    -0.019 A 
ATOM     20  C3  <0> d          47.090  46.380  46.238  0.00  0.00     0.010 A 
ATOM     21  C2  <0> d          46.272  45.293  45.995  0.00  0.00     0.001 A 
ATOM     22  C1  <0> d          46.825  44.079  45.634  0.00  0.00     0.000 A 
ATOM     23  C6  <0> d          48.198  43.952  45.519  0.00  0.00     0.001 A 
ATOM     24  C5  <0> d          49.015  45.041  45.759  0.00  0.00     0.010 A 
ATOM     25  N3  <0> d          48.567  48.489  47.059  0.00  0.00    -0.062 N 
ATOM     26  H14 <0> d          47.750  48.079  47.508  0.00  0.00     0.275 HD
ATOM     27  H15 <0> d          49.138  48.960  47.759  0.00  0.00     0.275 HD
ATOM     28  H16 <0> d          48.258  49.175  46.362  0.00  0.00     0.275 HD
ENDMDL
MODEL 5
REMARK VINA RESULT:      -8.3      3.758      5.333
ATOM      1  C8  <0> d          51.033  48.213  44.570  0.00  0.00     0.253 C 
ATOM      2  O1  <0> d          51.246  49.396  44.731  0.00  0.00    -0.271 OA
ATOM      3  N1  <0> d          49.799  47.715  44.786  0.00  0.00    -0.344 N 
ATOM      4  H9  <0> d          49.629  46.769  44.657  0.00  0.00     0.163 HD
ATOM      5  C9  <0> d          48.716  48.603  45.218  0.00  0.00     0.200 C 
ATOM      6  C15 <0> d          47.392  47.910  45.400  0.00  0.00     0.250 C 
ATOM      7  N2  <0> d          46.758  48.798  44.659  0.00  0.00    -0.302 N 
ATOM      8  O2  <0> d          47.043  46.915  46.000  0.00  0.00    -0.271 OA
ATOM      9  C10 <0> d          48.021  49.323  44.083  0.00  0.00     0.125 C 
ATOM     10  C14 <0> d          45.467  49.315  44.400  0.00  0.00     0.133 C 
ATOM     11  C11 <0> d          47.937  50.854  44.193  0.00  0.00     0.034 C 
ATOM     12  C12 <0> d          46.669  51.314  43.469  0.00  0.00     0.056 C 
ATOM     13  C13 <0> d          45.445  50.536  43.840  0.00  0.00     0.045 C 
ATOM     14 Cl1  <0> d          43.898  51.257  43.522  0.00  0.00    -0.086 Cl
ATOM     15  C16 <0> d          44.239  48.569  44.717  0.00  0.00     0.228 C 
ATOM     16  O3  <0> d          43.732  47.850  43.879  0.00  0.00    -0.643 OA
ATOM     17  O4  <0> d          43.677  48.683  45.936  0.00  0.00    -0.643 OA
ATOM     18  C7  <0> d          52.147  47.301  44.125  0.00  0.00     0.307 C 
ATOM     19  C4  <0> d          51.963  46.956  42.671  0.00  0.00    -0.019 A 
ATOM     20  C3  <0> d          52.257  47.890  41.695  0.00  0.00     0.010 A 
ATOM     21  C2  <0> d          52.087  47.574  40.359  0.00  0.00     0.001 A 
ATOM     22  C1  <0> d          51.627  46.322  39.999  0.00  0.00     0.000 A 
ATOM     23  C6  <0> d          51.334  45.386  40.975  0.00  0.00     0.001 A 
ATOM     24  C5  <0> d          51.507  45.702  42.310  0.00  0.00     0.010 A 
ATOM     25  N3  <0> d          52.141  46.058  44.917  0.00  0.00    -0.062 N 
ATOM     26  H14 <0> d          52.554  46.227  45.832  0.00  0.00     0.275 HD
ATOM     27  H15 <0> d          51.187  45.722  45.032  0.00  0.00     0.275 HD
ATOM     28  H16 <0> d          52.691  45.344  44.427  0.00  0.00     0.275 HD
ENDMDL
MODEL 6
REMARK VINA RESULT:      -8.3      3.290      3.982
ATOM      1  C8  <0> d          50.777  49.650  39.385  0.00  0.00     0.253 C 
ATOM      2  O1  <0> d          49.738  49.373  38.825  0.00  0.00    -0.271 OA
ATOM      3  N1  <0> d          50.793  49.838  40.721  0.00  0.00    -0.344 N 
ATOM      4  H9  <0> d          51.624  50.059  41.169  0.00  0.00     0.163 HD
ATOM      5  C9  <0> d          49.555  49.708  41.494  0.00  0.00     0.200 C 
ATOM      6  C15 <0> d          48.783  50.992  41.634  0.00  0.00     0.250 C 
ATOM      7  N2  <0> d          48.682  50.859  42.943  0.00  0.00    -0.302 N 
ATOM      8  O2  <0> d          48.400  51.829  40.844  0.00  0.00    -0.271 OA
ATOM      9  C10 <0> d          49.749  49.830  42.990  0.00  0.00     0.125 C 
ATOM     10  C14 <0> d          47.919  51.296  44.051  0.00  0.00     0.133 C 
ATOM     11  C11 <0> d          49.195  48.680  43.848  0.00  0.00     0.034 C 
ATOM     12  C12 <0> d          48.802  49.251  45.212  0.00  0.00     0.056 C 
ATOM     13  C13 <0> d          47.978  50.498  45.131  0.00  0.00     0.045 C 
ATOM     14 Cl1  <0> d          47.041  50.945  46.523  0.00  0.00    -0.086 Cl
ATOM     15  C16 <0> d          47.123  52.533  44.025  0.00  0.00     0.228 C 
ATOM     16  O3  <0> d          47.653  53.601  44.260  0.00  0.00    -0.643 OA
ATOM     17  O4  <0> d          45.807  52.482  43.741  0.00  0.00    -0.643 OA
ATOM     18  C7  <0> d          52.050  49.783  38.590  0.00  0.00     0.307 C 
ATOM     19  C4  <0> d          52.472  51.228  38.558  0.00  0.00    -0.019 A 
ATOM     20  C3  <0> d          51.837  52.117  37.711  0.00  0.00     0.010 A 
ATOM     21  C2  <0> d          52.225  53.444  37.681  0.00  0.00     0.001 A 
ATOM     22  C1  <0> d          53.247  53.883  38.500  0.00  0.00     0.000 A 
ATOM     23  C6  <0> d          53.882  52.995  39.349  0.00  0.00     0.001 A 
ATOM     24  C5  <0> d          53.492  51.669  39.381  0.00  0.00     0.010 A 
ATOM     25  N3  <0> d          51.845  49.313  37.208  0.00  0.00    -0.062 N 
ATOM     26  H14 <0> d          51.765  50.110  36.578  0.00  0.00     0.275 HD
ATOM     27  H15 <0> d          52.627  48.729  36.919  0.00  0.00     0.275 HD
ATOM     28  H16 <0> d          50.981  48.763  37.164  0.00  0.00     0.275 HD
ENDMDL
MODEL 7
REMARK VINA RESULT:      -8.3      3.797      4.875
ATOM      1  C8  <0> d          49.793  47.563  40.016  0.00  0.00     0.253 C 
ATOM      2  O1  <0> d          48.658  47.156  39.894  0.00  0.00    -0.271 OA
ATOM      3  N1  <0> d          50.057  48.583  40.856  0.00  0.00    -0.344 N 
ATOM      4  H9  <0> d          50.965  48.908  40.954  0.00  0.00     0.163 HD
ATOM      5  C9  <0> d          48.971  49.202  41.621  0.00  0.00     0.200 C 
ATOM      6  C15 <0> d          49.154  50.676  41.863  0.00  0.00     0.250 C 
ATOM      7  N2  <0> d          48.931  50.553  43.157  0.00  0.00    -0.302 N 
ATOM      8  O2  <0> d          49.408  51.617  41.141  0.00  0.00    -0.271 OA
ATOM      9  C10 <0> d          49.129  49.083  43.122  0.00  0.00     0.125 C 
ATOM     10  C14 <0> d          48.553  51.298  44.298  0.00  0.00     0.133 C 
ATOM     11  C11 <0> d          47.943  48.474  43.889  0.00  0.00     0.034 C 
ATOM     12  C12 <0> d          47.926  49.079  45.295  0.00  0.00     0.056 C 
ATOM     13  C13 <0> d          48.055  50.570  45.313  0.00  0.00     0.045 C 
ATOM     14 Cl1  <0> d          47.534  51.413  46.738  0.00  0.00    -0.086 Cl
ATOM     15  C16 <0> d          48.696  52.760  44.371  0.00  0.00     0.228 C 
ATOM     16  O3  <0> d          49.777  53.253  44.627  0.00  0.00    -0.643 OA
ATOM     17  O4  <0> d          47.629  53.553  44.154  0.00  0.00    -0.643 OA
ATOM     18  C7  <0> d          50.910  46.926  39.229  0.00  0.00     0.307 C 
ATOM     19  C4  <0> d          50.842  47.388  37.798  0.00  0.00    -0.019 A 
ATOM     20  C3  <0> d          51.508  48.536  37.408  0.00  0.00     0.010 A 
ATOM     21  C2  <0> d          51.446  48.960  36.093  0.00  0.00     0.001 A 
ATOM     22  C1  <0> d          50.720  48.236  35.167  0.00  0.00     0.000 A 
ATOM     23  C6  <0> d          50.055  47.087  35.557  0.00  0.00     0.001 A 
ATOM     24  C5  <0> d          50.120  46.661  36.870  0.00  0.00     0.010 A 
ATOM     25  N3  <0> d          50.793  45.457  39.265  0.00  0.00    -0.062 N 
ATOM     26  H14 <0> d          51.614  45.054  39.711  0.00  0.00     0.275 HD
ATOM     27  H15 <0> d          49.958  45.186  39.781  0.00  0.00     0.275 HD
ATOM     28  H16 <0> d          50.724  45.102  38.305  0.00  0.00     0.275 HD
ENDMDL
MODEL 8
REMARK VINA RESULT:      -8.1      2.803      3.687
ATOM      1  C8  <0> d          50.654  47.470  38.924  0.00  0.00     0.253 C 
ATOM      2  O1  <0> d          49.490  47.585  38.606  0.00  0.00    -0.271 OA
ATOM      3  N1  <0> d          50.995  47.417  40.227  0.00  0.00    -0.344 N 
ATOM      4  H9  <0> d          51.927  47.325  40.481  0.00  0.00     0.163 HD
ATOM      5  C9  <0> d          49.959  47.500  41.260  0.00  0.00     0.200 C 
ATOM      6  C15 <0> d          49.856  48.849  41.917  0.00  0.00     0.250 C 
ATOM      7  N2  <0> d          49.907  48.330  43.129  0.00  0.00    -0.302 N 
ATOM      8  O2  <0> d          49.761  49.982  41.494  0.00  0.00    -0.271 OA
ATOM      9  C10 <0> d          50.412  47.029  42.625  0.00  0.00     0.125 C 
ATOM     10  C14 <0> d          49.590  48.615  44.477  0.00  0.00     0.133 C 
ATOM     11  C11 <0> d          49.550  45.947  43.297  0.00  0.00     0.034 C 
ATOM     12  C12 <0> d          49.659  46.127  44.813  0.00  0.00     0.056 C 
ATOM     13  C13 <0> d          49.459  47.538  45.270  0.00  0.00     0.045 C 
ATOM     14 Cl1  <0> d          49.036  47.800  46.934  0.00  0.00    -0.086 Cl
ATOM     15  C16 <0> d          49.420  49.989  44.976  0.00  0.00     0.228 C 
ATOM     16  O3  <0> d          48.361  50.564  44.820  0.00  0.00    -0.643 OA
ATOM     17  O4  <0> d          50.438  50.608  45.605  0.00  0.00    -0.643 OA
ATOM     18  C7  <0> d          51.720  47.385  37.862  0.00  0.00     0.307 C 
ATOM     19  C4  <0> d          51.606  48.572  36.941  0.00  0.00    -0.019 A 
ATOM     20  C3  <0> d          51.940  49.835  37.395  0.00  0.00     0.010 A 
ATOM     21  C2  <0> d          51.836  50.924  36.550  0.00  0.00     0.001 A 
ATOM     22  C1  <0> d          51.401  50.751  35.250  0.00  0.00     0.000 A 
ATOM     23  C6  <0> d          51.069  49.488  34.795  0.00  0.00     0.001 A 
ATOM     24  C5  <0> d          51.177  48.398  35.639  0.00  0.00     0.010 A 
ATOM     25  N3  <0> d          51.562  46.150  37.072  0.00  0.00    -0.062 N 
ATOM     26  H14 <0> d          51.539  45.342  37.692  0.00  0.00     0.275 HD
ATOM     27  H15 <0> d          50.700  46.189  36.532  0.00  0.00     0.275 HD
ATOM     28  H16 <0> d          52.357  46.057  36.430  0.00  0.00     0.275 HD
ENDMDL
MODEL 9
REMARK VINA RESULT:      -8.1      3.337      4.482
ATOM      1  C8  <0> d          49.036  50.650  38.602  0.00  0.00     0.253 C 
ATOM      2  O1  <0> d          49.674  51.679  38.664  0.00  0.00    -0.271 OA
ATOM      3  N1  <0> d          48.379  50.198  39.689  0.00  0.00    -0.344 N 
ATOM      4  H9  <0> d          47.868  49.375  39.639  0.00  0.00     0.163 HD
ATOM      5  C9  <0> d          48.438  50.950  40.946  0.00  0.00     0.200 C 
ATOM      6  C15 <0> d          49.490  50.460  41.904  0.00  0.00     0.250 C 
ATOM      7  N2  <0> d          48.632  50.391  42.904  0.00  0.00    -0.302 N 
ATOM      8  O2  <0> d          50.674  50.221  41.796  0.00  0.00    -0.271 OA
ATOM      9  C10 <0> d          47.461  50.468  41.997  0.00  0.00     0.125 C 
ATOM     10  C14 <0> d          48.569  50.355  44.317  0.00  0.00     0.133 C 
ATOM     11  C11 <0> d          46.524  51.528  42.598  0.00  0.00     0.034 C 
ATOM     12  C12 <0> d          46.190  51.110  44.032  0.00  0.00     0.056 C 
ATOM     13  C13 <0> d          47.388  50.721  44.842  0.00  0.00     0.045 C 
ATOM     14 Cl1  <0> d          47.238  50.738  46.572  0.00  0.00    -0.086 Cl
ATOM     15  C16 <0> d          49.711  49.946  45.149  0.00  0.00     0.228 C 
ATOM     16  O3  <0> d          50.542  50.766  45.486  0.00  0.00    -0.643 OA
ATOM     17  O4  <0> d          49.837  48.661  45.537  0.00  0.00    -0.643 OA
ATOM     18  C7  <0> d          48.976  49.877  37.310  0.00  0.00     0.307 C 
ATOM     19  C4  <0> d          49.691  48.563  37.477  0.00  0.00    -0.019 A 
ATOM     20  C3  <0> d          48.983  47.377  37.422  0.00  0.00     0.010 A 
ATOM     21  C2  <0> d          49.640  46.170  37.576  0.00  0.00     0.001 A 
ATOM     22  C1  <0> d          51.006  46.149  37.782  0.00  0.00     0.000 A 
ATOM     23  C6  <0> d          51.715  47.335  37.836  0.00  0.00     0.001 A 
ATOM     24  C5  <0> d          51.059  48.541  37.678  0.00  0.00     0.010 A 
ATOM     25  N3  <0> d          49.620  50.639  36.224  0.00  0.00    -0.062 N 
ATOM     26  H14 <0> d          50.621  50.449  36.214  0.00  0.00     0.275 HD
ATOM     27  H15 <0> d          49.216  50.377  35.327  0.00  0.00     0.275 HD
ATOM     28  H16 <0> d          49.470  51.641  36.380  0.00  0.00     0.275 HD
ENDMDL
MODEL 10
REMARK VINA RESULT:      -8.0      2.798      3.296
ATOM      1  C8  <0> d          51.454  49.648  40.586  0.00  0.00     0.253 C 
ATOM      2  O1  <0> d          51.995  48.987  41.446  0.00  0.00    -0.271 OA
ATOM      3  N1  <0> d          50.308  50.303  40.860  0.00  0.00    -0.344 N 
ATOM      4  H9  <0> d          49.876  50.832  40.172  0.00  0.00     0.163 HD
ATOM      5  C9  <0> d          49.716  50.216  42.198  0.00  0.00     0.200 C 
ATOM      6  C15 <0> d          48.576  49.239  42.301  0.00  0.00     0.250 C 
ATOM      7  N2  <0> d          47.787  50.127  42.873  0.00  0.00    -0.302 N 
ATOM      8  O2  <0> d          48.438  48.077  41.980  0.00  0.00    -0.271 OA
ATOM      9  C10 <0> d          48.656  51.261  42.471  0.00  0.00     0.125 C 
ATOM     10  C14 <0> d          46.623  50.234  43.668  0.00  0.00     0.133 C 
ATOM     11  C11 <0> d          48.849  52.119  43.732  0.00  0.00     0.034 C 
ATOM     12  C12 <0> d          47.466  52.529  44.244  0.00  0.00     0.056 C 
ATOM     13  C13 <0> d          46.494  51.394  44.335  0.00  0.00     0.045 C 
ATOM     14 Cl1  <0> d          45.109  51.592  45.363  0.00  0.00    -0.086 Cl
ATOM     15  C16 <0> d          45.625  49.157  43.758  0.00  0.00     0.228 C 
ATOM     16  O3  <0> d          45.751  48.280  44.590  0.00  0.00    -0.643 OA
ATOM     17  O4  <0> d          44.572  49.142  42.918  0.00  0.00    -0.643 OA
ATOM     18  C7  <0> d          52.063  49.737  39.210  0.00  0.00     0.307 C 
ATOM     19  C4  <0> d          52.441  51.166  38.922  0.00  0.00    -0.019 A 
ATOM     20  C3  <0> d          53.485  51.759  39.608  0.00  0.00     0.010 A 
ATOM     21  C2  <0> d          53.832  53.071  39.342  0.00  0.00     0.001 A 
ATOM     22  C1  <0> d          53.137  53.790  38.389  0.00  0.00     0.000 A 
ATOM     23  C6  <0> d          52.093  53.197  37.702  0.00  0.00     0.001 A 
ATOM     24  C5  <0> d          51.749  51.885  37.964  0.00  0.00     0.010 A 
ATOM     25  N3  <0> d          51.102  49.281  38.191  0.00  0.00    -0.062 N 
ATOM     26  H14 <0> d          51.414  48.399  37.789  0.00  0.00     0.275 HD
ATOM     27  H15 <0> d          50.182  49.157  38.609  0.00  0.00     0.275 HD
ATOM     28  H16 <0> d          51.040  49.984  37.447  0.00  0.00     0.275 HD
ENDMDL
MODEL 1
REMARK VINA RESULT:      -9.0      0.000      0.000
ATOM      1  C8  <0> d          51.379  50.010  40.970  0.00  0.00     0.253 C 
ATOM      2  O1  <0> d          50.805  51.025  41.304  0.00  0.00    -0.271 OA
ATOM      3  N1  <0> d          51.442  48.963  41.815  0.00  0.00    -0.344 N 
ATOM      4  H9  <0> d          51.902  48.151  41.549  0.00  0.00     0.163 HD
ATOM      5  C9  <0> d          50.819  49.050  43.138  0.00  0.00     0.200 C 
ATOM      6  C15 <0> d          51.118  47.880  44.036  0.00  0.00     0.250 C 
ATOM      7  N2  <0> d          49.844  47.694  44.321  0.00  0.00    -0.302 N 
ATOM      8  O2  <0> d          52.142  47.322  44.370  0.00  0.00    -0.271 OA
ATOM      9  C10 <0> d          49.396  48.536  43.184  0.00  0.00     0.125 C 
ATOM     10  C14 <0> d          48.992  47.095  45.277  0.00  0.00     0.133 C 
ATOM     11  C11 <0> d          48.338  49.495  43.754  0.00  0.00     0.034 C 
ATOM     12  C12 <0> d          47.233  48.655  44.397  0.00  0.00     0.056 C 
ATOM     13  C13 <0> d          47.741  47.584  45.310  0.00  0.00     0.045 C 
ATOM     14 Cl1  <0> d          46.642  46.926  46.481  0.00  0.00    -0.086 Cl
ATOM     15  C16 <0> d          49.442  46.015  46.170  0.00  0.00     0.228 C 
ATOM     16  O3  <0> d          49.941  46.285  47.244  0.00  0.00    -0.643 OA
ATOM     17  O4  <0> d          49.301  44.728  45.795  0.00  0.00    -0.643 OA
ATOM     18  C7  <0> d          52.022  49.921  39.609  0.00  0.00     0.307 C 
ATOM     19  C4  <0> d          52.435  51.298  39.158  0.00  0.00    -0.019 A 
ATOM     20  C3  <0> d          53.585  51.874  39.664  0.00  0.00     0.010 A 
ATOM     21  C2  <0> d          53.964  53.138  39.250  0.00  0.00     0.001 A 
ATOM     22  C1  <0> d          53.196  53.824  38.328  0.00  0.00     0.000 A 
ATOM     23  C6  <0> d          52.046  53.245  37.822  0.00  0.00     0.001 A 
ATOM     24  C5  <0> d          51.669  51.980  38.233  0.00  0.00     0.010 A 
ATOM     25  N3  <0> d          51.075  49.359  38.629  0.00  0.00    -0.062 N 
ATOM     26  H14 <0> d          51.363  49.610  37.684  0.00  0.00     0.275 HD
ATOM     27  H15 <0> d          51.045  48.345  38.715  0.00  0.00     0.275 HD
ATOM     28  H16 <0> d          50.140  49.739  38.808  0.00  0.00     0.275 HD
ENDMDL
MODEL 2
REMARK VINA RESULT:      -8.8      1.222      1.760
ATOM      1  C8  <0> d          50.306  50.479  40.859  0.00  0.00     0.253 C 
ATOM      2  O1  <0> d          49.550  51.426  40.898  0.00  0.00    -0.271 OA
ATOM      3  N1  <0> d          50.459  49.694  41.943  0.00  0.00    -0.344 N 
ATOM      4  H9  <0> d          51.064  48.937  41.913  0.00  0.00     0.163 HD
ATOM      5  C9  <0> d          49.712  49.985  43.171  0.00  0.00     0.200 C 
ATOM      6  C15 <0> d          50.216  49.250  44.384  0.00  0.00     0.250 C 
ATOM      7  N2  <0> d          49.010  48.814  44.696  0.00  0.00    -0.302 N 
ATOM      8  O2  <0> d          51.313  49.113  44.884  0.00  0.00    -0.271 OA
ATOM      9  C10 <0> d          48.471  49.139  43.351  0.00  0.00     0.125 C 
ATOM     10  C14 <0> d          48.254  48.308  45.777  0.00  0.00     0.133 C 
ATOM     11  C11 <0> d          47.154  49.896  43.591  0.00  0.00     0.034 C 
ATOM     12  C12 <0> d          46.245  49.008  44.444  0.00  0.00     0.056 C 
ATOM     13  C13 <0> d          46.923  48.426  45.645  0.00  0.00     0.045 C 
ATOM     14 Cl1  <0> d          45.923  47.859  46.946  0.00  0.00    -0.086 Cl
ATOM     15  C16 <0> d          48.880  47.695  46.960  0.00  0.00     0.228 C 
ATOM     16  O3  <0> d          49.030  46.491  47.012  0.00  0.00    -0.643 OA
ATOM     17  O4  <0> d          49.288  48.471  47.984  0.00  0.00    -0.643 OA
ATOM     18  C7  <0> d          51.075  50.181  39.598  0.00  0.00     0.307 C 
ATOM     19  C4  <0> d          51.818  51.415  39.159  0.00  0.00    -0.019 A 
ATOM     20  C3  <0> d          51.316  52.197  38.135  0.00  0.00     0.010 A 
ATOM     21  C2  <0> d          51.998  53.330  37.733  0.00  0.00     0.001 A 
ATOM     22  C1  <0> d          53.180  53.684  38.355  0.00  0.00     0.000 A 
ATOM     23  C6  <0> d          53.681  52.902  39.379  0.00  0.00     0.001 A 
ATOM     24  C5  <0> d          52.997  51.771  39.785  0.00  0.00     0.010 A 
ATOM     25  N3  <0> d          50.157  49.766  38.521  0.00  0.00    -0.062 N 
ATOM     26  H14 <0> d          49.596  50.560  38.218  0.00  0.00     0.275 HD
ATOM     27  H15 <0> d          50.687  49.404  37.731  0.00  0.00     0.275 HD
ATOM     28  H16 <0> d          49.536  49.030  38.873  0.00  0.00     0.275 HD
ENDMDL
MODEL 3
REMARK VINA RESULT:      -8.7      3.314      3.740
ATOM      1  C8  <0> d          51.583  46.685  40.493  0.00  0.00     0.253 C 
ATOM      2  O1  <0> d          52.550  47.348  40.803  0.00  0.00    -0.271 OA
ATOM      3  N1  <0> d          50.460  46.743  41.235  0.00  0.00    -0.344 N 
ATOM      4  H9  <0> d          49.687  46.213  40.988  0.00  0.00     0.163 HD
ATOM      5  C9  <0> d          50.408  47.605  42.420  0.00  0.00     0.200 C 
ATOM      6  C15 <0> d          50.324  46.854  43.721  0.00  0.00     0.250 C 
ATOM      7  N2  <0> d          49.292  47.564  44.135  0.00  0.00    -0.302 N 
ATOM      8  O2  <0> d          50.964  45.943  44.205  0.00  0.00    -0.271 OA
ATOM      9  C10 <0> d          49.016  48.083  42.772  0.00  0.00     0.125 C 
ATOM     10  C14 <0> d          48.594  47.936  45.306  0.00  0.00     0.133 C 
ATOM     11  C11 <0> d          48.831  49.602  42.924  0.00  0.00     0.034 C 
ATOM     12  C12 <0> d          47.710  49.845  43.937  0.00  0.00     0.056 C 
ATOM     13  C13 <0> d          47.849  49.048  45.196  0.00  0.00     0.045 C 
ATOM     14 Cl1  <0> d          46.987  49.593  46.600  0.00  0.00    -0.086 Cl
ATOM     15  C16 <0> d          48.676  47.160  46.554  0.00  0.00     0.228 C 
ATOM     16  O3  <0> d          49.542  47.412  47.369  0.00  0.00    -0.643 OA
ATOM     17  O4  <0> d          47.791  46.172  46.794  0.00  0.00    -0.643 OA
ATOM     18  C7  <0> d          51.637  45.798  39.276  0.00  0.00     0.307 C 
ATOM     19  C4  <0> d          51.074  46.537  38.090  0.00  0.00    -0.019 A 
ATOM     20  C3  <0> d          51.883  47.386  37.357  0.00  0.00     0.010 A 
ATOM     21  C2  <0> d          51.367  48.063  36.269  0.00  0.00     0.001 A 
ATOM     22  C1  <0> d          50.043  47.892  35.910  0.00  0.00     0.000 A 
ATOM     23  C6  <0> d          49.235  47.042  36.644  0.00  0.00     0.001 A 
ATOM     24  C5  <0> d          49.753  46.360  37.730  0.00  0.00     0.010 A 
ATOM     25  N3  <0> d          50.847  44.573  39.496  0.00  0.00    -0.062 N 
ATOM     26  H14 <0> d          51.259  44.024  40.249  0.00  0.00     0.275 HD
ATOM     27  H15 <0> d          49.888  44.815  39.739  0.00  0.00     0.275 HD
ATOM     28  H16 <0> d          50.844  44.015  38.636  0.00  0.00     0.275 HD
ENDMDL
MODEL 4
REMARK VINA RESULT:      -8.6      2.269      2.860
ATOM      1  C8  <0> d          50.626  49.699  38.843  0.00  0.00     0.253 C 
ATOM      2  O1  <0> d          51.189  48.781  38.286  0.00  0.00    -0.271 OA
ATOM      3  N1  <0> d          50.271  49.586  40.137  0.00  0.00    -0.344 N 
ATOM      4  H9  <0> d          49.820  50.320  40.583  0.00  0.00     0.163 HD
ATOM      5  C9  <0> d          50.563  48.352  40.872  0.00  0.00     0.200 C 
ATOM      6  C15 <0> d          49.338  47.597  41.314  0.00  0.00     0.250 C 
ATOM      7  N2  <0> d          49.770  47.503  42.557  0.00  0.00    -0.302 N 
ATOM      8  O2  <0> d          48.337  47.219  40.744  0.00  0.00    -0.271 OA
ATOM      9  C10 <0> d          50.794  48.558  42.353  0.00  0.00     0.125 C 
ATOM     10  C14 <0> d          49.595  46.754  43.743  0.00  0.00     0.133 C 
ATOM     11  C11 <0> d          52.106  47.995  42.927  0.00  0.00     0.034 C 
ATOM     12  C12 <0> d          51.861  47.620  44.390  0.00  0.00     0.056 C 
ATOM     13  C13 <0> d          50.622  46.810  44.608  0.00  0.00     0.045 C 
ATOM     14 Cl1  <0> d          50.500  45.890  46.075  0.00  0.00    -0.086 Cl
ATOM     15  C16 <0> d          48.377  45.973  44.012  0.00  0.00     0.228 C 
ATOM     16  O3  <0> d          48.243  44.870  43.520  0.00  0.00    -0.643 OA
ATOM     17  O4  <0> d          47.411  46.481  44.803  0.00  0.00    -0.643 OA
ATOM     18  C7  <0> d          50.325  50.968  38.086  0.00  0.00     0.307 C 
ATOM     19  C4  <0> d          51.456  51.944  38.272  0.00  0.00    -0.019 A 
ATOM     20  C3  <0> d          52.419  51.711  39.237  0.00  0.00     0.010 A 
ATOM     21  C2  <0> d          53.458  52.607  39.408  0.00  0.00     0.001 A 
ATOM     22  C1  <0> d          53.536  53.735  38.613  0.00  0.00     0.000 A 
ATOM     23  C6  <0> d          52.574  53.967  37.647  0.00  0.00     0.001 A 
ATOM     24  C5  <0> d          51.537  53.068  37.474  0.00  0.00     0.010 A 
ATOM     25  N3  <0> d          49.078  51.579  38.582  0.00  0.00    -0.062 N 
ATOM     26  H14 <0> d          48.580  50.919  39.178  0.00  0.00     0.275 HD
ATOM     27  H15 <0> d          49.290  52.421  39.114  0.00  0.00     0.275 HD
ATOM     28  H16 <0> d          48.483  51.826  37.784  0.00  0.00     0.275 HD
ENDMDL
MODEL 5
REMARK VINA RESULT:      -8.3      2.254      2.765
ATOM      1  C8  <0> d          50.511  50.060  38.958  0.00  0.00     0.253 C 
ATOM      2  O1  <0> d          49.411  50.562  38.864  0.00  0.00    -0.271 OA
ATOM      3  N1  <0> d          50.809  49.285  40.019  0.00  0.00    -0.344 N 
ATOM      4  H9  <0> d          51.689  48.885  40.096  0.00  0.00     0.163 HD
ATOM      5  C9  <0> d          49.804  49.050  41.060  0.00  0.00     0.200 C 
ATOM      6  C15 <0> d          49.794  50.089  42.149  0.00  0.00     0.250 C 
ATOM      7  N2  <0> d          49.845  49.179  43.102  0.00  0.00    -0.302 N 
ATOM      8  O2  <0> d          49.753  51.302  42.148  0.00  0.00    -0.271 OA
ATOM      9  C10 <0> d          50.263  48.114  42.157  0.00  0.00     0.125 C 
ATOM     10  C14 <0> d          49.578  48.991  44.477  0.00  0.00     0.133 C 
ATOM     11  C11 <0> d          49.358  46.905  42.450  0.00  0.00     0.034 C 
ATOM     12  C12 <0> d          49.514  46.542  43.928  0.00  0.00     0.056 C 
ATOM     13  C13 <0> d          49.405  47.713  44.853  0.00  0.00     0.045 C 
ATOM     14 Cl1  <0> d          49.039  47.398  46.521  0.00  0.00    -0.086 Cl
ATOM     15  C16 <0> d          49.498  50.112  45.427  0.00  0.00     0.228 C 
ATOM     16  O3  <0> d          50.513  50.664  45.802  0.00  0.00    -0.643 OA
ATOM     17  O4  <0> d          48.298  50.527  45.880  0.00  0.00    -0.643 OA
ATOM     18  C7  <0> d          51.544  50.304  37.888  0.00  0.00     0.307 C 
ATOM     19  C4  <0> d          52.229  51.622  38.142  0.00  0.00    -0.019 A 
ATOM     20  C3  <0> d          53.186  51.723  39.134  0.00  0.00     0.010 A 
ATOM     21  C2  <0> d          53.815  52.932  39.367  0.00  0.00     0.001 A 
ATOM     22  C1  <0> d          53.489  54.039  38.607  0.00  0.00     0.000 A 
ATOM     23  C6  <0> d          52.531  53.937  37.615  0.00  0.00     0.001 A 
ATOM     24  C5  <0> d          51.906  52.726  37.379  0.00  0.00     0.010 A 
ATOM     25  N3  <0> d          50.909  50.342  36.558  0.00  0.00    -0.062 N 
ATOM     26  H14 <0> d          50.001  49.881  36.593  0.00  0.00     0.275 HD
ATOM     27  H15 <0> d          50.787  51.307  36.258  0.00  0.00     0.275 HD
ATOM     28  H16 <0> d          51.509  49.855  35.885  0.00  0.00     0.275 HD
ENDMDL
MODEL 6
REMARK VINA RESULT:      -8.2      3.309      3.893
ATOM      1  C8  <0> d          50.713  49.740  39.261  0.00  0.00     0.253 C 
ATOM      2  O1  <0> d          49.659  49.549  38.692  0.00  0.00    -0.271 OA
ATOM      3  N1  <0> d          50.746  49.831  40.604  0.00  0.00    -0.344 N 
ATOM      4  H9  <0> d          51.588  49.985  41.060  0.00  0.00     0.163 HD
ATOM      5  C9  <0> d          49.509  49.701  41.379  0.00  0.00     0.200 C 
ATOM      6  C15 <0> d          48.754  50.992  41.551  0.00  0.00     0.250 C 
ATOM      7  N2  <0> d          48.654  50.830  42.857  0.00  0.00    -0.302 N 
ATOM      8  O2  <0> d          48.380  51.852  40.782  0.00  0.00    -0.271 OA
ATOM      9  C10 <0> d          49.709  49.785  42.877  0.00  0.00     0.125 C 
ATOM     10  C14 <0> d          47.902  51.251  43.977  0.00  0.00     0.133 C 
ATOM     11  C11 <0> d          49.142  48.624  43.710  0.00  0.00     0.034 C 
ATOM     12  C12 <0> d          48.761  49.170  45.088  0.00  0.00     0.056 C 
ATOM     13  C13 <0> d          47.953  50.428  45.038  0.00  0.00     0.045 C 
ATOM     14 Cl1  <0> d          47.028  50.856  46.443  0.00  0.00    -0.086 Cl
ATOM     15  C16 <0> d          47.122  52.499  43.980  0.00  0.00     0.228 C 
ATOM     16  O3  <0> d          45.948  52.481  43.667  0.00  0.00    -0.643 OA
ATOM     17  O4  <0> d          47.708  53.660  44.332  0.00  0.00    -0.643 OA
ATOM     18  C7  <0> d          51.985  49.876  38.464  0.00  0.00     0.307 C 
ATOM     19  C4  <0> d          52.430  51.315  38.471  0.00  0.00    -0.019 A 
ATOM     20  C3  <0> d          53.439  51.722  39.325  0.00  0.00     0.010 A 
ATOM     21  C2  <0> d          53.848  53.042  39.331  0.00  0.00     0.001 A 
ATOM     22  C1  <0> d          53.252  53.956  38.482  0.00  0.00     0.000 A 
ATOM     23  C6  <0> d          52.244  53.547  37.628  0.00  0.00     0.001 A 
ATOM     24  C5  <0> d          51.838  52.226  37.618  0.00  0.00     0.010 A 
ATOM     25  N3  <0> d          51.767  49.449  37.070  0.00  0.00    -0.062 N 
ATOM     26  H14 <0> d          51.174  48.620  37.048  0.00  0.00     0.275 HD
ATOM     27  H15 <0> d          51.322  50.197  36.541  0.00  0.00     0.275 HD
ATOM     28  H16 <0> d          52.671  49.226  36.641  0.00  0.00     0.275 HD
ENDMDL
MODEL 7
REMARK VINA RESULT:      -8.1      2.542      3.632
ATOM      1  C8  <0> d          51.631  51.625  39.419  0.00  0.00     0.253 C 
ATOM      2  O1  <0> d          52.642  51.792  40.066  0.00  0.00    -0.271 OA
ATOM      3  N1  <0> d          50.685  50.771  39.856  0.00  0.00    -0.344 N 
ATOM      4  H9  <0> d          49.876  50.636  39.338  0.00  0.00     0.163 HD
ATOM      5  C9  <0> d          50.879  50.043  41.113  0.00  0.00     0.200 C 
ATOM      6  C15 <0> d          51.560  48.710  40.951  0.00  0.00     0.250 C 
ATOM      7  N2  <0> d          50.633  48.083  41.651  0.00  0.00    -0.302 N 
ATOM      8  O2  <0> d          52.574  48.351  40.392  0.00  0.00    -0.271 OA
ATOM      9  C10 <0> d          49.683  49.219  41.538  0.00  0.00     0.125 C 
ATOM     10  C14 <0> d          50.405  46.899  42.387  0.00  0.00     0.133 C 
ATOM     11  C11 <0> d          49.147  49.469  42.957  0.00  0.00     0.034 C 
ATOM     12  C12 <0> d          48.525  48.167  43.467  0.00  0.00     0.056 C 
ATOM     13  C13 <0> d          49.394  46.964  43.270  0.00  0.00     0.045 C 
ATOM     14 Cl1  <0> d          49.071  45.562  44.240  0.00  0.00    -0.086 Cl
ATOM     15  C16 <0> d          51.214  45.684  42.200  0.00  0.00     0.228 C 
ATOM     16  O3  <0> d          50.971  44.929  41.279  0.00  0.00    -0.643 OA
ATOM     17  O4  <0> d          52.224  45.409  43.048  0.00  0.00    -0.643 OA
ATOM     18  C7  <0> d          51.432  52.372  38.125  0.00  0.00     0.307 C 
ATOM     19  C4  <0> d          51.511  51.408  36.971  0.00  0.00    -0.019 A 
ATOM     20  C3  <0> d          50.744  51.619  35.840  0.00  0.00     0.010 A 
ATOM     21  C2  <0> d          50.817  50.734  34.780  0.00  0.00     0.001 A 
ATOM     22  C1  <0> d          51.658  49.639  34.849  0.00  0.00     0.000 A 
ATOM     23  C6  <0> d          52.426  49.430  35.980  0.00  0.00     0.001 A 
ATOM     24  C5  <0> d          52.356  50.317  37.038  0.00  0.00     0.010 A 
ATOM     25  N3  <0> d          52.473  53.403  37.961  0.00  0.00    -0.062 N 
ATOM     26  H14 <0> d          52.043  54.324  37.885  0.00  0.00     0.275 HD
ATOM     27  H15 <0> d          53.106  53.389  38.758  0.00  0.00     0.275 HD
ATOM     28  H16 <0> d          53.007  53.210  37.106  0.00  0.00     0.275 HD
ENDMDL
MODEL 8
REMARK VINA RESULT:      -8.1      3.330      4.389
ATOM      1  C8  <0> d          49.072  50.619  38.672  0.00  0.00     0.253 C 
ATOM      2  O1  <0> d          49.823  51.566  38.769  0.00  0.00    -0.271 OA
ATOM      3  N1  <0> d          48.320  50.245  39.725  0.00  0.00    -0.344 N 
ATOM      4  H9  <0> d          47.720  49.487  39.649  0.00  0.00     0.163 HD
ATOM      5  C9  <0> d          48.411  50.982  40.989  0.00  0.00     0.200 C 
ATOM      6  C15 <0> d          49.465  50.461  41.928  0.00  0.00     0.250 C 
ATOM      7  N2  <0> d          48.620  50.399  42.940  0.00  0.00    -0.302 N 
ATOM      8  O2  <0> d          50.643  50.199  41.802  0.00  0.00    -0.271 OA
ATOM      9  C10 <0> d          47.439  50.509  42.048  0.00  0.00     0.125 C 
ATOM     10  C14 <0> d          48.575  50.350  44.351  0.00  0.00     0.133 C 
ATOM     11  C11 <0> d          46.531  51.582  42.674  0.00  0.00     0.034 C 
ATOM     12  C12 <0> d          46.209  51.154  44.107  0.00  0.00     0.056 C 
ATOM     13  C13 <0> d          47.409  50.734  44.897  0.00  0.00     0.045 C 
ATOM     14 Cl1  <0> d          47.282  50.736  46.628  0.00  0.00    -0.086 Cl
ATOM     15  C16 <0> d          49.720  49.909  45.164  0.00  0.00     0.228 C 
ATOM     16  O3  <0> d          50.598  50.698  45.453  0.00  0.00    -0.643 OA
ATOM     17  O4  <0> d          49.795  48.632  45.587  0.00  0.00    -0.643 OA
ATOM     18  C7  <0> d          48.980  49.860  37.373  0.00  0.00     0.307 C 
ATOM     19  C4  <0> d          49.685  48.536  37.513  0.00  0.00    -0.019 A 
ATOM     20  C3  <0> d          51.062  48.497  37.634  0.00  0.00     0.010 A 
ATOM     21  C2  <0> d          51.709  47.282  37.763  0.00  0.00     0.001 A 
ATOM     22  C1  <0> d          50.981  46.107  37.775  0.00  0.00     0.000 A 
ATOM     23  C6  <0> d          49.604  46.148  37.655  0.00  0.00     0.001 A 
ATOM     24  C5  <0> d          48.956  47.364  37.530  0.00  0.00     0.010 A 
ATOM     25  N3  <0> d          49.612  50.626  36.283  0.00  0.00    -0.062 N 
ATOM     26  H14 <0> d          50.573  50.858  36.532  0.00  0.00     0.275 HD
ATOM     27  H15 <0> d          49.608  50.080  35.424  0.00  0.00     0.275 HD
ATOM     28  H16 <0> d          49.085  51.493  36.132  0.00  0.00     0.275 HD
ENDMDL
MODEL 9
REMARK VINA RESULT:      -8.0      3.208      7.847
ATOM      1  C8  <0> d          49.750  46.033  43.620  0.00  0.00     0.253 C 
ATOM      2  O1  <0> d          50.867  45.743  43.992  0.00  0.00    -0.271 OA
ATOM      3  N1  <0> d          49.574  46.659  42.440  0.00  0.00    -0.344 N 
ATOM      4  H9  <0> d          48.681  46.892  42.143  0.00  0.00     0.163 HD
ATOM      5  C9  <0> d          50.733  46.992  41.607  0.00  0.00     0.200 C 
ATOM      6  C15 <0> d          51.117  48.447  41.644  0.00  0.00     0.250 C 
ATOM      7  N2  <0> d          51.142  48.537  40.328  0.00  0.00    -0.302 N 
ATOM      8  O2  <0> d          51.325  49.235  42.542  0.00  0.00    -0.271 OA
ATOM      9  C10 <0> d          50.390  47.268  40.159  0.00  0.00     0.125 C 
ATOM     10  C14 <0> d          51.664  49.321  39.274  0.00  0.00     0.133 C 
ATOM     11  C11 <0> d          51.159  46.453  39.106  0.00  0.00     0.034 C 
ATOM     12  C12 <0> d          51.269  47.301  37.837  0.00  0.00     0.056 C 
ATOM     13  C13 <0> d          51.733  48.702  38.084  0.00  0.00     0.045 C 
ATOM     14 Cl1  <0> d          52.395  49.586  36.745  0.00  0.00    -0.086 Cl
ATOM     15  C16 <0> d          52.098  50.714  39.468  0.00  0.00     0.228 C 
ATOM     16  O3  <0> d          51.302  51.622  39.332  0.00  0.00    -0.643 OA
ATOM     17  O4  <0> d          53.378  50.982  39.796  0.00  0.00    -0.643 OA
ATOM     18  C7  <0> d          48.559  45.693  44.479  0.00  0.00     0.307 C 
ATOM     19  C4  <0> d          48.291  46.823  45.437  0.00  0.00    -0.019 A 
ATOM     20  C3  <0> d          48.990  46.899  46.628  0.00  0.00     0.010 A 
ATOM     21  C2  <0> d          48.744  47.937  47.508  0.00  0.00     0.001 A 
ATOM     22  C1  <0> d          47.802  48.900  47.197  0.00  0.00     0.000 A 
ATOM     23  C6  <0> d          47.105  48.823  46.005  0.00  0.00     0.001 A 
ATOM     24  C5  <0> d          47.353  47.788  45.123  0.00  0.00     0.010 A 
ATOM     25  N3  <0> d          48.814  44.462  45.249  0.00  0.00    -0.062 N 
ATOM     26  H14 <0> d          49.762  44.132  45.073  0.00  0.00     0.275 HD
ATOM     27  H15 <0> d          48.698  44.642  46.244  0.00  0.00     0.275 HD
ATOM     28  H16 <0> d          48.148  43.738  44.958  0.00  0.00     0.275 HD
ENDMDL
MODEL 10
REMARK VINA RESULT:      -8.0      3.841      5.583
ATOM      1  C8  <0> d          50.810  47.383  45.218  0.00  0.00     0.253 C 
ATOM      2  O1  <0> d          50.379  46.598  46.035  0.00  0.00    -0.271 OA
ATOM      3  N1  <0> d          50.096  48.480  44.897  0.00  0.00    -0.344 N 
ATOM      4  H9  <0> d          50.440  49.108  44.243  0.00  0.00     0.163 HD
ATOM      5  C9  <0> d          48.799  48.724  45.534  0.00  0.00     0.200 C 
ATOM      6  C15 <0> d          47.633  48.110  44.805  0.00  0.00     0.250 C 
ATOM      7  N2  <0> d          46.957  49.243  44.809  0.00  0.00    -0.302 N 
ATOM      8  O2  <0> d          47.405  46.998  44.379  0.00  0.00    -0.271 OA
ATOM      9  C10 <0> d          48.162  50.041  45.148  0.00  0.00     0.125 C 
ATOM     10  C14 <0> d          45.647  49.758  44.682  0.00  0.00     0.133 C 
ATOM     11  C11 <0> d          47.748  50.967  46.304  0.00  0.00     0.034 C 
ATOM     12  C12 <0> d          46.546  51.794  45.844  0.00  0.00     0.056 C 
ATOM     13  C13 <0> d          45.464  50.983  45.202  0.00  0.00     0.045 C 
ATOM     14 Cl1  <0> d          43.874  51.674  45.118  0.00  0.00    -0.086 Cl
ATOM     15  C16 <0> d          44.564  49.008  44.027  0.00  0.00     0.228 C 
ATOM     16  O3  <0> d          44.452  49.035  42.817  0.00  0.00    -0.643 OA
ATOM     17  O4  <0> d          43.696  48.291  44.768  0.00  0.00    -0.643 OA
ATOM     18  C7  <0> d          52.143  47.132  44.561  0.00  0.00     0.307 C 
ATOM     19  C4  <0> d          51.941  46.903  43.086  0.00  0.00    -0.019 A 
ATOM     20  C3  <0> d          52.259  47.899  42.182  0.00  0.00     0.010 A 
ATOM     21  C2  <0> d          52.074  47.689  40.829  0.00  0.00     0.001 A 
ATOM     22  C1  <0> d          51.574  46.482  40.378  0.00  0.00     0.000 A 
ATOM     23  C6  <0> d          51.258  45.485  41.283  0.00  0.00     0.001 A 
ATOM     24  C5  <0> d          51.447  45.694  42.637  0.00  0.00     0.010 A 
ATOM     25  N3  <0> d          52.789  45.943  45.147  0.00  0.00    -0.062 N 
ATOM     26  H14 <0> d          52.634  45.923  46.154  0.00  0.00     0.275 HD
ATOM     27  H15 <0> d          52.407  45.097  44.729  0.00  0.00     0.275 HD
ATOM     28  H16 <0> d          53.797  45.983  44.964  0.00  0.00     0.275 HD
ENDMDL
MODEL 1
REMARK VINA RESULT:      -9.0      0.000      0.000
ATOM      1  C8  <0> d          51.390  49.997  40.976  0.00  0.00     0.253 C 
ATOM      2  O1  <0> d          50.822  51.014  41.313  0.00  0.00    -0.271 OA
ATOM      3  N1  <0> d          51.449  48.947  41.819  0.00  0.00    -0.344 N 
ATOM      4  H9  <0> d          51.904  48.134  41.550  0.00  0.00     0.163 HD
ATOM      5  C9  <0> d          50.828  49.035  43.143  0.00  0.00     0.200 C 
ATOM      6  C15 <0> d          51.123  47.862  44.038  0.00  0.00     0.250 C 
ATOM      7  N2  <0> d          49.848  47.681  44.324  0.00  0.00    -0.302 N 
ATOM      8  O2  <0> d          52.146  47.299  44.370  0.00  0.00    -0.271 OA
ATOM      9  C10 <0> d          49.402  48.526  43.189  0.00  0.00     0.125 C 
ATOM     10  C14 <0> d          48.996  47.082  45.280  0.00  0.00     0.133 C 
ATOM     11  C11 <0> d          48.350  49.489  43.763  0.00  0.00     0.034 C 
ATOM     12  C12 <0> d          47.242  48.653  44.407  0.00  0.00     0.056 C 
ATOM     13  C13 <0> d          47.747  47.578  45.316  0.00  0.00     0.045 C 
ATOM     14 Cl1  <0> d          46.645  46.922  46.487  0.00  0.00    -0.086 Cl
ATOM     15  C16 <0> d          49.442  45.999  46.169  0.00  0.00     0.228 C 
ATOM     16  O3  <0> d          49.936  46.263  47.248  0.00  0.00    -0.643 OA
ATOM     17  O4  <0> d          49.300  44.714  45.789  0.00  0.00    -0.643 OA
ATOM     18  C7  <0> d          52.029  49.908  39.614  0.00  0.00     0.307 C 
ATOM     19  C4  <0> d          52.446  51.284  39.164  0.00  0.00    -0.019 A 
ATOM     20  C3  <0> d          53.602  51.854  39.663  0.00  0.00     0.010 A 
ATOM     21  C2  <0> d          53.985  53.117  39.251  0.00  0.00     0.001 A 
ATOM     22  C1  <0> d          53.212  53.809  38.339  0.00  0.00     0.000 A 
ATOM     23  C6  <0> d          52.056  53.239  37.840  0.00  0.00     0.001 A 
ATOM     24  C5  <0> d          51.675  51.975  38.248  0.00  0.00     0.010 A 
ATOM     25  N3  <0> d          51.081  49.350  38.636  0.00  0.00    -0.062 N 
ATOM     26  H14 <0> d          50.471  48.670  39.089  0.00  0.00     0.275 HD
ATOM     27  H15 <0> d          50.517  50.094  38.231  0.00  0.00     0.275 HD
ATOM     28  H16 <0> d          51.605  48.882  37.887  0.00  0.00     0.275 HD
ENDMDL
MODEL 2
REMARK VINA RESULT:      -8.7      3.297      3.842
ATOM      1  C8  <0> d          51.547  46.693  40.533  0.00  0.00     0.253 C 
ATOM      2  O1  <0> d          52.499  47.368  40.864  0.00  0.00    -0.271 OA
ATOM      3  N1  <0> d          50.407  46.737  41.252  0.00  0.00    -0.344 N 
ATOM      4  H9  <0> d          49.647  46.198  40.988  0.00  0.00     0.163 HD
ATOM      5  C9  <0> d          50.320  47.599  42.434  0.00  0.00     0.200 C 
ATOM      6  C15 <0> d          50.267  46.848  43.737  0.00  0.00     0.250 C 
ATOM      7  N2  <0> d          49.207  47.516  44.150  0.00  0.00    -0.302 N 
ATOM      8  O2  <0> d          50.944  45.965  44.223  0.00  0.00    -0.271 OA
ATOM      9  C10 <0> d          48.909  48.020  42.787  0.00  0.00     0.125 C 
ATOM     10  C14 <0> d          48.495  47.860  45.321  0.00  0.00     0.133 C 
ATOM     11  C11 <0> d          48.662  49.530  42.935  0.00  0.00     0.034 C 
ATOM     12  C12 <0> d          47.533  49.730  43.948  0.00  0.00     0.056 C 
ATOM     13  C13 <0> d          47.705  48.942  45.208  0.00  0.00     0.045 C 
ATOM     14 Cl1  <0> d          46.821  49.453  46.612  0.00  0.00    -0.086 Cl
ATOM     15  C16 <0> d          48.607  47.091  46.570  0.00  0.00     0.228 C 
ATOM     16  O3  <0> d          47.885  46.131  46.759  0.00  0.00    -0.643 OA
ATOM     17  O4  <0> d          49.513  47.447  47.502  0.00  0.00    -0.643 OA
ATOM     18  C7  <0> d          51.638  45.808  39.318  0.00  0.00     0.307 C 
ATOM     19  C4  <0> d          51.088  46.539  38.121  0.00  0.00    -0.019 A 
ATOM     20  C3  <0> d          49.768  46.362  37.750  0.00  0.00     0.010 A 
ATOM     21  C2  <0> d          49.262  47.032  36.651  0.00  0.00     0.001 A 
ATOM     22  C1  <0> d          50.076  47.881  35.926  0.00  0.00     0.000 A 
ATOM     23  C6  <0> d          51.396  48.058  36.298  0.00  0.00     0.001 A 
ATOM     24  C5  <0> d          51.900  47.392  37.398  0.00  0.00     0.010 A 
ATOM     25  N3  <0> d          50.864  44.571  39.522  0.00  0.00    -0.062 N 
ATOM     26  H14 <0> d          50.440  44.575  40.449  0.00  0.00     0.275 HD
ATOM     27  H15 <0> d          50.135  44.494  38.816  0.00  0.00     0.275 HD
ATOM     28  H16 <0> d          51.493  43.763  39.445  0.00  0.00     0.275 HD
ENDMDL
MODEL 3
REMARK VINA RESULT:      -8.3      2.752      3.399
ATOM      1  C8  <0> d          51.449  46.897  40.354  0.00  0.00     0.253 C 
ATOM      2  O1  <0> d          52.418  47.393  40.888  0.00  0.00    -0.271 OA
ATOM      3  N1  <0> d          50.402  46.492  41.100  0.00  0.00    -0.344 N 
ATOM      4  H9  <0> d          49.628  46.095  40.673  0.00  0.00     0.163 HD
ATOM      5  C9  <0> d          50.435  46.651  42.556  0.00  0.00     0.200 C 
ATOM      6  C15 <0> d          49.241  46.069  43.264  0.00  0.00     0.250 C 
ATOM      7  N2  <0> d          49.024  47.181  43.941  0.00  0.00    -0.302 N 
ATOM      8  O2  <0> d          48.690  44.989  43.225  0.00  0.00    -0.271 OA
ATOM      9  C10 <0> d          49.895  47.979  43.044  0.00  0.00     0.125 C 
ATOM     10  C14 <0> d          48.378  47.670  45.099  0.00  0.00     0.133 C 
ATOM     11  C11 <0> d          50.816  48.798  43.962  0.00  0.00     0.034 C 
ATOM     12  C12 <0> d          49.937  49.628  44.899  0.00  0.00     0.056 C 
ATOM     13  C13 <0> d          48.845  48.844  45.556  0.00  0.00     0.045 C 
ATOM     14 Cl1  <0> d          48.129  49.500  46.996  0.00  0.00    -0.086 Cl
ATOM     15  C16 <0> d          47.277  46.949  45.755  0.00  0.00     0.228 C 
ATOM     16  O3  <0> d          47.508  46.213  46.695  0.00  0.00    -0.643 OA
ATOM     17  O4  <0> d          46.012  47.106  45.317  0.00  0.00    -0.643 OA
ATOM     18  C7  <0> d          51.416  46.734  38.857  0.00  0.00     0.307 C 
ATOM     19  C4  <0> d          50.786  47.951  38.233  0.00  0.00    -0.019 A 
ATOM     20  C3  <0> d          51.576  49.019  37.849  0.00  0.00     0.010 A 
ATOM     21  C2  <0> d          50.998  50.137  37.277  0.00  0.00     0.001 A 
ATOM     22  C1  <0> d          49.631  50.187  37.088  0.00  0.00     0.000 A 
ATOM     23  C6  <0> d          48.841  49.119  37.471  0.00  0.00     0.001 A 
ATOM     24  C5  <0> d          49.419  48.000  38.039  0.00  0.00     0.010 A 
ATOM     25  N3  <0> d          50.632  45.543  38.485  0.00  0.00    -0.062 N 
ATOM     26  H14 <0> d          51.205  44.706  38.578  0.00  0.00     0.275 HD
ATOM     27  H15 <0> d          49.814  45.463  39.084  0.00  0.00     0.275 HD
ATOM     28  H16 <0> d          50.326  45.633  37.509  0.00  0.00     0.275 HD
ENDMDL
MODEL 4
REMARK VINA RESULT:      -8.3      4.057      8.104
ATOM      1  C8  <0> d          49.663  48.127  45.090  0.00  0.00     0.253 C 
ATOM      2  O1  <0> d          50.744  48.678  45.096  0.00  0.00    -0.271 OA
ATOM      3  N1  <0> d          48.997  47.963  43.929  0.00  0.00    -0.344 N 
ATOM      4  H9  <0> d          48.134  47.523  43.923  0.00  0.00     0.163 HD
ATOM      5  C9  <0> d          49.578  48.454  42.676  0.00  0.00     0.200 C 
ATOM      6  C15 <0> d          48.672  48.310  41.483  0.00  0.00     0.250 C 
ATOM      7  N2  <0> d          49.610  47.721  40.765  0.00  0.00    -0.302 N 
ATOM      8  O2  <0> d          47.519  48.619  41.266  0.00  0.00    -0.271 OA
ATOM      9  C10 <0> d          50.443  47.438  41.959  0.00  0.00     0.125 C 
ATOM     10  C14 <0> d          49.973  47.434  39.429  0.00  0.00     0.133 C 
ATOM     11  C11 <0> d          51.870  47.886  41.600  0.00  0.00     0.034 C 
ATOM     12  C12 <0> d          52.297  47.140  40.334  0.00  0.00     0.056 C 
ATOM     13  C13 <0> d          51.278  47.172  39.240  0.00  0.00     0.045 C 
ATOM     14 Cl1  <0> d          51.814  46.843  37.622  0.00  0.00    -0.086 Cl
ATOM     15  C16 <0> d          48.997  47.420  38.330  0.00  0.00     0.228 C 
ATOM     16  O3  <0> d          48.360  46.411  38.096  0.00  0.00    -0.643 OA
ATOM     17  O4  <0> d          48.805  48.527  37.585  0.00  0.00    -0.643 OA
ATOM     18  C7  <0> d          49.067  47.623  46.378  0.00  0.00     0.307 C 
ATOM     19  C4  <0> d          48.319  46.342  46.118  0.00  0.00    -0.019 A 
ATOM     20  C3  <0> d          46.942  46.311  46.231  0.00  0.00     0.010 A 
ATOM     21  C2  <0> d          46.254  45.136  45.993  0.00  0.00     0.001 A 
ATOM     22  C1  <0> d          46.944  43.992  45.641  0.00  0.00     0.000 A 
ATOM     23  C6  <0> d          48.321  44.022  45.529  0.00  0.00     0.001 A 
ATOM     24  C5  <0> d          49.008  45.198  45.762  0.00  0.00     0.010 A 
ATOM     25  N3  <0> d          48.136  48.618  46.938  0.00  0.00    -0.062 N 
ATOM     26  H14 <0> d          48.629  49.491  47.122  0.00  0.00     0.275 HD
ATOM     27  H15 <0> d          47.373  48.789  46.287  0.00  0.00     0.275 HD
ATOM     28  H16 <0> d          47.751  48.259  47.820  0.00  0.00     0.275 HD
ENDMDL
MODEL 5
REMARK VINA RESULT:      -8.3      3.246      3.836
ATOM      1  C8  <0> d          50.798  49.608  39.493  0.00  0.00     0.253 C 
ATOM      2  O1  <0> d          49.751  49.303  38.962  0.00  0.00    -0.271 OA
ATOM      3  N1  <0> d          50.839  49.833  40.822  0.00  0.00    -0.344 N 
ATOM      4  H9  <0> d          51.676  50.077  41.246  0.00  0.00     0.163 HD
ATOM      5  C9  <0> d          49.619  49.711  41.624  0.00  0.00     0.200 C 
ATOM      6  C15 <0> d          48.836  50.990  41.747  0.00  0.00     0.250 C 
ATOM      7  N2  <0> d          48.762  50.890  43.060  0.00  0.00    -0.302 N 
ATOM      8  O2  <0> d          48.428  51.802  40.943  0.00  0.00    -0.271 OA
ATOM      9  C10 <0> d          49.841  49.873  43.113  0.00  0.00     0.125 C 
ATOM     10  C14 <0> d          48.018  51.348  44.171  0.00  0.00     0.133 C 
ATOM     11  C11 <0> d          49.318  48.741  44.011  0.00  0.00     0.034 C 
ATOM     12  C12 <0> d          48.945  49.344  45.367  0.00  0.00     0.056 C 
ATOM     13  C13 <0> d          48.106  50.579  45.269  0.00  0.00     0.045 C 
ATOM     14 Cl1  <0> d          47.194  51.052  46.669  0.00  0.00    -0.086 Cl
ATOM     15  C16 <0> d          47.208  52.575  44.129  0.00  0.00     0.228 C 
ATOM     16  O3  <0> d          47.733  53.656  44.320  0.00  0.00    -0.643 OA
ATOM     17  O4  <0> d          45.887  52.503  43.874  0.00  0.00    -0.643 OA
ATOM     18  C7  <0> d          52.052  49.734  38.668  0.00  0.00     0.307 C 
ATOM     19  C4  <0> d          52.475  51.178  38.615  0.00  0.00    -0.019 A 
ATOM     20  C3  <0> d          53.510  51.625  39.416  0.00  0.00     0.010 A 
ATOM     21  C2  <0> d          53.899  52.951  39.368  0.00  0.00     0.001 A 
ATOM     22  C1  <0> d          53.254  53.829  38.519  0.00  0.00     0.000 A 
ATOM     23  C6  <0> d          52.220  53.383  37.718  0.00  0.00     0.001 A 
ATOM     24  C5  <0> d          51.834  52.056  37.762  0.00  0.00     0.010 A 
ATOM     25  N3  <0> d          51.816  49.252  37.296  0.00  0.00    -0.062 N 
ATOM     26  H14 <0> d          52.686  49.270  36.766  0.00  0.00     0.275 HD
ATOM     27  H15 <0> d          51.451  48.302  37.316  0.00  0.00     0.275 HD
ATOM     28  H16 <0> d          51.131  49.864  36.837  0.00  0.00     0.275 HD
ENDMDL
MODEL 6
REMARK VINA RESULT:      -8.2      3.815      4.901
ATOM      1  C8  <0> d          49.787  47.607  39.998  0.00  0.00     0.253 C 
ATOM      2  O1  <0> d          48.656  47.186  39.877  0.00  0.00    -0.271 OA
ATOM      3  N1  <0> d          50.037  48.634  40.834  0.00  0.00    -0.344 N 
ATOM      4  H9  <0> d          50.941  48.970  40.931  0.00  0.00     0.163 HD
ATOM      5  C9  <0> d          48.943  49.243  41.596  0.00  0.00     0.200 C 
ATOM      6  C15 <0> d          49.114  50.718  41.841  0.00  0.00     0.250 C 
ATOM      7  N2  <0> d          48.887  50.590  43.135  0.00  0.00    -0.302 N 
ATOM      8  O2  <0> d          49.364  51.662  41.122  0.00  0.00    -0.271 OA
ATOM      9  C10 <0> d          49.096  49.122  43.097  0.00  0.00     0.125 C 
ATOM     10  C14 <0> d          48.499  51.331  44.275  0.00  0.00     0.133 C 
ATOM     11  C11 <0> d          47.912  48.503  43.859  0.00  0.00     0.034 C 
ATOM     12  C12 <0> d          47.884  49.106  45.264  0.00  0.00     0.056 C 
ATOM     13  C13 <0> d          48.001  50.597  45.285  0.00  0.00     0.045 C 
ATOM     14 Cl1  <0> d          47.468  51.433  46.711  0.00  0.00    -0.086 Cl
ATOM     15  C16 <0> d          48.630  52.793  44.350  0.00  0.00     0.228 C 
ATOM     16  O3  <0> d          47.653  53.500  44.196  0.00  0.00    -0.643 OA
ATOM     17  O4  <0> d          49.833  53.351  44.594  0.00  0.00    -0.643 OA
ATOM     18  C7  <0> d          50.910  46.981  39.215  0.00  0.00     0.307 C 
ATOM     19  C4  <0> d          50.831  47.427  37.778  0.00  0.00    -0.019 A 
ATOM     20  C3  <0> d          51.524  48.548  37.363  0.00  0.00     0.010 A 
ATOM     21  C2  <0> d          51.451  48.959  36.045  0.00  0.00     0.001 A 
ATOM     22  C1  <0> d          50.685  48.247  35.142  0.00  0.00     0.000 A 
ATOM     23  C6  <0> d          49.992  47.125  35.557  0.00  0.00     0.001 A 
ATOM     24  C5  <0> d          50.069  46.712  36.873  0.00  0.00     0.010 A 
ATOM     25  N3  <0> d          50.819  45.511  39.267  0.00  0.00    -0.062 N 
ATOM     26  H14 <0> d          51.716  45.097  39.016  0.00  0.00     0.275 HD
ATOM     27  H15 <0> d          50.556  45.210  40.203  0.00  0.00     0.275 HD
ATOM     28  H16 <0> d          50.105  45.194  38.600  0.00  0.00     0.275 HD
ENDMDL
MODEL 7
REMARK VINA RESULT:      -8.1      3.141      3.903
ATOM      1  C8  <0> d          49.224  49.503  40.300  0.00  0.00     0.253 C 
ATOM      2  O1  <0> d          50.362  49.915  40.376  0.00  0.00    -0.271 OA
ATOM      3  N1  <0> d          48.603  49.031  41.400  0.00  0.00    -0.344 N 
ATOM      4  H9  <0> d          47.694  48.702  41.338  0.00  0.00     0.163 HD
ATOM      5  C9  <0> d          49.304  49.014  42.686  0.00  0.00     0.200 C 
ATOM      6  C15 <0> d          49.124  47.740  43.465  0.00  0.00     0.250 C 
ATOM      7  N2  <0> d          48.776  48.387  44.562  0.00  0.00    -0.302 N 
ATOM      8  O2  <0> d          49.252  46.565  43.190  0.00  0.00    -0.271 OA
ATOM      9  C10 <0> d          48.525  49.647  43.820  0.00  0.00     0.125 C 
ATOM     10  C14 <0> d          48.685  48.232  45.964  0.00  0.00     0.133 C 
ATOM     11  C11 <0> d          49.241  50.756  44.608  0.00  0.00     0.034 C 
ATOM     12  C12 <0> d          48.704  50.743  46.041  0.00  0.00     0.056 C 
ATOM     13  C13 <0> d          48.669  49.382  46.661  0.00  0.00     0.045 C 
ATOM     14 Cl1  <0> d          48.594  49.281  48.393  0.00  0.00    -0.086 Cl
ATOM     15  C16 <0> d          48.612  46.914  46.611  0.00  0.00     0.228 C 
ATOM     16  O3  <0> d          47.560  46.304  46.630  0.00  0.00    -0.643 OA
ATOM     17  O4  <0> d          49.711  46.381  47.180  0.00  0.00    -0.643 OA
ATOM     18  C7  <0> d          48.505  49.520  38.976  0.00  0.00     0.307 C 
ATOM     19  C4  <0> d          49.073  48.448  38.083  0.00  0.00    -0.019 A 
ATOM     20  C3  <0> d          49.572  48.780  36.837  0.00  0.00     0.010 A 
ATOM     21  C2  <0> d          50.093  47.796  36.016  0.00  0.00     0.001 A 
ATOM     22  C1  <0> d          50.115  46.482  36.442  0.00  0.00     0.000 A 
ATOM     23  C6  <0> d          49.615  46.151  37.687  0.00  0.00     0.001 A 
ATOM     24  C5  <0> d          49.100  47.134  38.510  0.00  0.00     0.010 A 
ATOM     25  N3  <0> d          48.667  50.828  38.319  0.00  0.00    -0.062 N 
ATOM     26  H14 <0> d          49.596  51.201  38.510  0.00  0.00     0.275 HD
ATOM     27  H15 <0> d          48.539  50.732  37.314  0.00  0.00     0.275 HD
ATOM     28  H16 <0> d          47.962  51.479  38.685  0.00  0.00     0.275 HD
ENDMDL
MODEL 8
REMARK VINA RESULT:      -8.1      3.209      7.900
ATOM      1  C8  <0> d          49.789  46.077  43.651  0.00  0.00     0.253 C 
ATOM      2  O1  <0> d          50.913  45.857  44.051  0.00  0.00    -0.271 OA
ATOM      3  N1  <0> d          49.602  46.631  42.436  0.00  0.00    -0.344 N 
ATOM      4  H9  <0> d          48.704  46.807  42.117  0.00  0.00     0.163 HD
ATOM      5  C9  <0> d          50.757  46.968  41.599  0.00  0.00     0.200 C 
ATOM      6  C15 <0> d          51.133  48.424  41.633  0.00  0.00     0.250 C 
ATOM      7  N2  <0> d          51.154  48.512  40.316  0.00  0.00    -0.302 N 
ATOM      8  O2  <0> d          51.339  49.215  42.529  0.00  0.00    -0.271 OA
ATOM      9  C10 <0> d          50.409  47.239  40.151  0.00  0.00     0.125 C 
ATOM     10  C14 <0> d          51.670  49.299  39.261  0.00  0.00     0.133 C 
ATOM     11  C11 <0> d          51.181  46.427  39.097  0.00  0.00     0.034 C 
ATOM     12  C12 <0> d          51.284  47.274  37.827  0.00  0.00     0.056 C 
ATOM     13  C13 <0> d          51.740  48.677  38.072  0.00  0.00     0.045 C 
ATOM     14 Cl1  <0> d          52.394  49.563  36.729  0.00  0.00    -0.086 Cl
ATOM     15  C16 <0> d          52.096  50.694  39.451  0.00  0.00     0.228 C 
ATOM     16  O3  <0> d          51.299  51.599  39.295  0.00  0.00    -0.643 OA
ATOM     17  O4  <0> d          53.368  50.969  39.801  0.00  0.00    -0.643 OA
ATOM     18  C7  <0> d          48.603  45.731  44.513  0.00  0.00     0.307 C 
ATOM     19  C4  <0> d          48.330  46.861  45.470  0.00  0.00    -0.019 A 
ATOM     20  C3  <0> d          47.431  47.854  45.129  0.00  0.00     0.010 A 
ATOM     21  C2  <0> d          47.180  48.892  46.007  0.00  0.00     0.001 A 
ATOM     22  C1  <0> d          47.828  48.937  47.226  0.00  0.00     0.000 A 
ATOM     23  C6  <0> d          48.728  47.944  47.567  0.00  0.00     0.001 A 
ATOM     24  C5  <0> d          48.975  46.904  46.692  0.00  0.00     0.010 A 
ATOM     25  N3  <0> d          48.866  44.503  45.282  0.00  0.00    -0.062 N 
ATOM     26  H14 <0> d          49.711  44.049  44.936  0.00  0.00     0.275 HD
ATOM     27  H15 <0> d          48.980  44.726  46.269  0.00  0.00     0.275 HD
ATOM     28  H16 <0> d          48.072  43.860  45.174  0.00  0.00     0.275 HD
ENDMDL
MODEL 9
REMARK VINA RESULT:      -8.0      3.135      4.708
ATOM      1  C8  <0> d          51.280  48.054  44.105  0.00  0.00     0.253 C 
ATOM      2  O1  <0> d          51.561  49.087  44.674  0.00  0.00    -0.271 OA
ATOM      3  N1  <0> d          50.029  47.558  44.190  0.00  0.00    -0.344 N 
ATOM      4  H9  <0> d          49.804  46.732  43.735  0.00  0.00     0.163 HD
ATOM      5  C9  <0> d          49.011  48.267  44.969  0.00  0.00     0.200 C 
ATOM      6  C15 <0> d          47.652  47.622  44.932  0.00  0.00     0.250 C 
ATOM      7  N2  <0> d          47.056  48.754  44.607  0.00  0.00    -0.302 N 
ATOM      8  O2  <0> d          47.256  46.492  45.128  0.00  0.00    -0.271 OA
ATOM      9  C10 <0> d          48.336  49.396  44.219  0.00  0.00     0.125 C 
ATOM     10  C14 <0> d          45.793  49.389  44.616  0.00  0.00     0.133 C 
ATOM     11  C11 <0> d          48.346  50.774  44.900  0.00  0.00     0.034 C 
ATOM     12  C12 <0> d          47.093  51.532  44.457  0.00  0.00     0.056 C 
ATOM     13  C13 <0> d          45.834  50.732  44.560  0.00  0.00     0.045 C 
ATOM     14 Cl1  <0> d          44.326  51.593  44.601  0.00  0.00    -0.086 Cl
ATOM     15  C16 <0> d          44.531  48.639  44.680  0.00  0.00     0.228 C 
ATOM     16  O3  <0> d          44.068  48.320  45.759  0.00  0.00    -0.643 OA
ATOM     17  O4  <0> d          43.885  48.307  43.545  0.00  0.00    -0.643 OA
ATOM     18  C7  <0> d          52.327  47.326  43.305  0.00  0.00     0.307 C 
ATOM     19  C4  <0> d          52.053  47.509  41.835  0.00  0.00    -0.019 A 
ATOM     20  C3  <0> d          52.148  48.766  41.266  0.00  0.00     0.010 A 
ATOM     21  C2  <0> d          51.896  48.935  39.917  0.00  0.00     0.001 A 
ATOM     22  C1  <0> d          51.551  47.848  39.137  0.00  0.00     0.000 A 
ATOM     23  C6  <0> d          51.457  46.592  39.706  0.00  0.00     0.001 A 
ATOM     24  C5  <0> d          51.713  46.421  41.053  0.00  0.00     0.010 A 
ATOM     25  N3  <0> d          52.310  45.887  43.620  0.00  0.00    -0.062 N 
ATOM     26  H14 <0> d          52.877  45.375  42.945  0.00  0.00     0.275 HD
ATOM     27  H15 <0> d          52.673  45.730  44.558  0.00  0.00     0.275 HD
ATOM     28  H16 <0> d          51.343  45.544  43.574  0.00  0.00     0.275 HD
ENDMDL
MODEL 10
REMARK VINA RESULT:      -8.0      2.384      3.234
ATOM      1  C8  <0> d          50.914  50.820  40.063  0.00  0.00     0.253 C 
ATOM      2  O1  <0> d          49.785  50.661  39.650  0.00  0.00    -0.271 OA
ATOM      3  N1  <0> d          51.304  50.221  41.206  0.00  0.00    -0.344 N 
ATOM      4  H9  <0> d          52.207  50.348  41.536  0.00  0.00     0.163 HD
ATOM      5  C9  <0> d          50.364  49.378  41.949  0.00  0.00     0.200 C 
ATOM      6  C15 <0> d          49.591  50.113  43.011  0.00  0.00     0.250 C 
ATOM      7  N2  <0> d          49.892  49.220  43.934  0.00  0.00    -0.302 N 
ATOM      8  O2  <0> d          48.938  51.136  43.014  0.00  0.00    -0.271 OA
ATOM      9  C10 <0> d          50.986  48.642  43.116  0.00  0.00     0.125 C 
ATOM     10  C14 <0> d          49.468  48.733  45.192  0.00  0.00     0.133 C 
ATOM     11  C11 <0> d          50.785  47.118  43.150  0.00  0.00     0.034 C 
ATOM     12  C12 <0> d          50.780  46.672  44.614  0.00  0.00     0.056 C 
ATOM     13  C13 <0> d          49.894  47.495  45.494  0.00  0.00     0.045 C 
ATOM     14 Cl1  <0> d          49.390  46.808  47.007  0.00  0.00    -0.086 Cl
ATOM     15  C16 <0> d          48.626  49.523  46.102  0.00  0.00     0.228 C 
ATOM     16  O3  <0> d          47.420  49.552  45.943  0.00  0.00    -0.643 OA
ATOM     17  O4  <0> d          49.189  50.212  47.115  0.00  0.00    -0.643 OA
ATOM     18  C7  <0> d          51.880  51.687  39.298  0.00  0.00     0.307 C 
ATOM     19  C4  <0> d          51.823  51.332  37.835  0.00  0.00    -0.019 A 
ATOM     20  C3  <0> d          51.286  52.227  36.928  0.00  0.00     0.010 A 
ATOM     21  C2  <0> d          51.233  51.902  35.585  0.00  0.00     0.001 A 
ATOM     22  C1  <0> d          51.717  50.684  35.150  0.00  0.00     0.000 A 
ATOM     23  C6  <0> d          52.253  49.789  36.057  0.00  0.00     0.001 A 
ATOM     24  C5  <0> d          52.311  50.116  37.398  0.00  0.00     0.010 A 
ATOM     25  N3  <0> d          53.255  51.483  39.788  0.00  0.00    -0.062 N 
ATOM     26  H14 <0> d          53.478  50.489  39.793  0.00  0.00     0.275 HD
ATOM     27  H15 <0> d          53.915  51.976  39.191  0.00  0.00     0.275 HD
ATOM     28  H16 <0> d          53.329  51.849  40.744  0.00  0.00     0.275 HD
ENDMDL
