MODEL
REMARK VINA RESULT:      -8.4    
REMARK AD4  RESULT:      -8.54   
REMARK FIN. RESULT:      -8.47   
ATOM      1  C1  <0> d          45.369  48.720  43.918  0.00  0.00     0.021 C 
ATOM      2  C2  <0> d          45.241  49.955  44.807  0.00  0.00    -0.012 C 
ATOM      3  C3  <0> d          43.800  50.040  45.335  0.00  0.00     0.022 C 
ATOM      4  C4  <0> d          42.812  50.150  44.176  0.00  0.00     0.084 C 
ATOM      5  C5  <0> d          43.206  51.286  43.271  0.00  0.00     0.149 C 
ATOM      6  O1  <0> d          42.371  51.797  42.549  0.00  0.00    -0.293 OA
ATOM      7  C6  <0> d          44.522  51.768  43.256  0.00  0.00     0.058 C 
ATOM      8  C7  <0> d          45.511  51.185  43.976  0.00  0.00    -0.046 C 
ATOM      9  C8  <0> d          46.855  51.751  43.923  0.00  0.00     0.004 C 
ATOM     10  C9  <0> d          47.832  51.277  44.677  0.00  0.00    -0.021 C 
ATOM     11  C10 <0> d          47.647  50.170  45.675  0.00  0.00     0.018 C 
ATOM     12  C11 <0> d          46.189  49.898  45.999  0.00  0.00     0.006 C 
ATOM     13  C12 <0> d          45.963  48.653  46.842  0.00  0.00     0.007 C 
ATOM     14  C13 <0> d          46.809  47.438  46.464  0.00  0.00     0.013 C 
ATOM     15  C14 <0> d          48.258  47.841  46.335  0.00  0.00    -0.009 C 
ATOM     16  C15 <0> d          48.363  48.920  45.232  0.00  0.00     0.005 C 
ATOM     17  C16 <0> d          49.884  49.044  45.054  0.00  0.00     0.009 C 
ATOM     18  C17 <0> d          50.374  47.576  45.153  0.00  0.00     0.039 C 
ATOM     19  C18 <0> d          49.246  46.776  45.855  0.00  0.00     0.066 C 
ATOM     20  C22 <0> d          48.765  48.371  47.681  0.00  0.00     0.019 C 
ATOM     21  C19 <0> d          48.600  45.803  44.873  0.00  0.00     0.049 C 
ATOM     22  C20 <0> d          48.525  44.413  45.507  0.00  0.00     0.116 C 
ATOM     23  C21 <0> d          47.185  43.794  45.202  0.00  0.00     0.172 C 
ATOM     24  O2  <0> d          46.269  43.924  45.978  0.00  0.00    -0.648 OA
ATOM     25  O4  <0> d          47.011  43.099  44.069  0.00  0.00    -0.648 OA
ATOM     26  O3  <0> d          49.776  46.069  46.979  0.00  0.00    -0.389 OA
ATOM     27  H26 <0> d          49.191  45.379  47.321  0.00  0.00     0.210 HD
ENDMDL
MODEL
REMARK VINA RESULT:      -8.5    
REMARK AD4  RESULT:      -8.54   
REMARK FIN. RESULT:      -8.52   
ATOM      1  C1  <0> d          46.221  49.381  45.125  0.00  0.00     0.021 C 
ATOM      2  C2  <0> d          46.789  50.539  44.306  0.00  0.00    -0.012 C 
ATOM      3  C3  <0> d          46.543  51.852  45.068  0.00  0.00     0.022 C 
ATOM      4  C4  <0> d          45.048  52.073  45.281  0.00  0.00     0.084 C 
ATOM      5  C5  <0> d          44.321  51.975  43.967  0.00  0.00     0.149 C 
ATOM      6  O1  <0> d          43.232  52.502  43.841  0.00  0.00    -0.293 OA
ATOM      7  C6  <0> d          44.886  51.289  42.883  0.00  0.00     0.058 C 
ATOM      8  C7  <0> d          46.056  50.614  42.991  0.00  0.00    -0.046 C 
ATOM      9  C8  <0> d          46.593  49.934  41.815  0.00  0.00     0.004 C 
ATOM     10  C9  <0> d          47.774  49.340  41.844  0.00  0.00    -0.021 C 
ATOM     11  C10 <0> d          48.679  49.349  43.043  0.00  0.00     0.018 C 
ATOM     12  C11 <0> d          48.288  50.389  44.075  0.00  0.00     0.006 C 
ATOM     13  C12 <0> d          49.054  50.283  45.384  0.00  0.00     0.007 C 
ATOM     14  C13 <0> d          49.274  48.863  45.906  0.00  0.00     0.013 C 
ATOM     15  C14 <0> d          49.814  47.987  44.800  0.00  0.00    -0.009 C 
ATOM     16  C15 <0> d          48.784  47.972  43.649  0.00  0.00     0.005 C 
ATOM     17  C16 <0> d          49.348  46.877  42.732  0.00  0.00     0.009 C 
ATOM     18  C17 <0> d          49.840  45.797  43.731  0.00  0.00     0.039 C 
ATOM     19  C18 <0> d          49.998  46.498  45.104  0.00  0.00     0.066 C 
ATOM     20  C22 <0> d          51.167  48.534  44.329  0.00  0.00     0.019 C 
ATOM     21  C19 <0> d          48.945  45.987  46.082  0.00  0.00     0.049 C 
ATOM     22  C20 <0> d          48.465  44.604  45.639  0.00  0.00     0.116 C 
ATOM     23  C21 <0> d          46.960  44.597  45.555  0.00  0.00     0.172 C 
ATOM     24  O2  <0> d          46.343  43.602  45.851  0.00  0.00    -0.648 OA
ATOM     25  O4  <0> d          46.307  45.698  45.151  0.00  0.00    -0.648 OA
ATOM     26  O3  <0> d          51.311  46.270  45.623  0.00  0.00    -0.389 OA
ATOM     27  H26 <0> d          51.512  45.339  45.789  0.00  0.00     0.210 HD
ENDMDL
MODEL
REMARK VINA RESULT:      -9.0    
REMARK AD4  RESULT:      -8.51   
REMARK FIN. RESULT:      -8.75   
ATOM      1  C1  <0> d          49.749  48.561  39.207  0.00  0.00     0.021 C 
ATOM      2  C2  <0> d          51.132  48.064  38.789  0.00  0.00    -0.012 C 
ATOM      3  C3  <0> d          51.789  49.124  37.889  0.00  0.00     0.022 C 
ATOM      4  C4  <0> d          50.942  49.363  36.641  0.00  0.00     0.084 C 
ATOM      5  C5  <0> d          50.660  48.056  35.952  0.00  0.00     0.149 C 
ATOM      6  O1  <0> d          50.371  48.049  34.771  0.00  0.00    -0.293 OA
ATOM      7  C6  <0> d          50.736  46.844  36.652  0.00  0.00     0.058 C 
ATOM      8  C7  <0> d          50.974  46.797  37.986  0.00  0.00    -0.046 C 
ATOM      9  C8  <0> d          51.054  45.499  38.646  0.00  0.00     0.004 C 
ATOM     10  C9  <0> d          51.374  45.395  39.925  0.00  0.00    -0.021 C 
ATOM     11  C10 <0> d          51.727  46.571  40.789  0.00  0.00     0.018 C 
ATOM     12  C11 <0> d          52.036  47.825  39.991  0.00  0.00     0.006 C 
ATOM     13  C12 <0> d          52.194  49.077  40.839  0.00  0.00     0.007 C 
ATOM     14  C13 <0> d          51.186  49.232  41.979  0.00  0.00     0.013 C 
ATOM     15  C14 <0> d          51.111  47.953  42.775  0.00  0.00    -0.009 C 
ATOM     16  C15 <0> d          50.661  46.818  41.826  0.00  0.00     0.005 C 
ATOM     17  C16 <0> d          50.401  45.667  42.809  0.00  0.00     0.009 C 
ATOM     18  C17 <0> d          49.725  46.373  44.013  0.00  0.00     0.039 C 
ATOM     19  C18 <0> d          50.072  47.881  43.897  0.00  0.00     0.066 C 
ATOM     20  C22 <0> d          52.481  47.651  43.392  0.00  0.00     0.019 C 
ATOM     21  C19 <0> d          48.820  48.686  43.563  0.00  0.00     0.049 C 
ATOM     22  C20 <0> d          48.185  49.202  44.857  0.00  0.00     0.116 C 
ATOM     23  C21 <0> d          47.053  48.292  45.258  0.00  0.00     0.172 C 
ATOM     24  O2  <0> d          46.082  48.186  44.547  0.00  0.00    -0.648 OA
ATOM     25  O4  <0> d          47.124  47.600  46.405  0.00  0.00    -0.648 OA
ATOM     26  O3  <0> d          50.650  48.345  45.120  0.00  0.00    -0.389 OA
ATOM     27  H26 <0> d          51.270  49.078  45.007  0.00  0.00     0.210 HD
ENDMDL
MODEL
REMARK VINA RESULT:      -9.2    
REMARK AD4  RESULT:      -8.49   
REMARK FIN. RESULT:      -8.84   
ATOM      1  C1  <0> d          50.139  50.361  37.968  0.00  0.00     0.021 C 
ATOM      2  C2  <0> d          51.141  49.261  37.623  0.00  0.00    -0.012 C 
ATOM      3  C3  <0> d          52.276  49.870  36.782  0.00  0.00     0.022 C 
ATOM      4  C4  <0> d          51.722  50.468  35.492  0.00  0.00     0.084 C 
ATOM      5  C5  <0> d          50.894  49.444  34.763  0.00  0.00     0.149 C 
ATOM      6  O1  <0> d          50.708  49.562  33.568  0.00  0.00    -0.293 OA
ATOM      7  C6  <0> d          50.342  48.351  35.445  0.00  0.00     0.058 C 
ATOM      8  C7  <0> d          50.448  48.213  36.789  0.00  0.00    -0.046 C 
ATOM      9  C8  <0> d          49.861  47.040  37.429  0.00  0.00     0.004 C 
ATOM     10  C9  <0> d          50.015  46.812  38.723  0.00  0.00    -0.021 C 
ATOM     11  C10 <0> d          50.833  47.688  39.627  0.00  0.00     0.018 C 
ATOM     12  C11 <0> d          51.749  48.634  38.871  0.00  0.00     0.006 C 
ATOM     13  C12 <0> d          52.432  49.670  39.750  0.00  0.00     0.007 C 
ATOM     14  C13 <0> d          51.553  50.300  40.831  0.00  0.00     0.013 C 
ATOM     15  C14 <0> d          50.830  49.220  41.599  0.00  0.00    -0.009 C 
ATOM     16  C15 <0> d          49.953  48.425  40.604  0.00  0.00     0.005 C 
ATOM     17  C16 <0> d          49.117  47.548  41.549  0.00  0.00     0.009 C 
ATOM     18  C17 <0> d          48.788  48.506  42.724  0.00  0.00     0.039 C 
ATOM     19  C18 <0> d          49.817  49.665  42.656  0.00  0.00     0.066 C 
ATOM     20  C22 <0> d          51.852  48.310  42.289  0.00  0.00     0.019 C 
ATOM     21  C19 <0> d          49.122  50.965  42.265  0.00  0.00     0.049 C 
ATOM     22  C20 <0> d          48.085  51.330  43.329  0.00  0.00     0.116 C 
ATOM     23  C21 <0> d          48.558  52.536  44.098  0.00  0.00     0.172 C 
ATOM     24  O2  <0> d          49.651  52.533  44.614  0.00  0.00    -0.648 OA
ATOM     25  O4  <0> d          47.767  53.613  44.209  0.00  0.00    -0.648 OA
ATOM     26  O3  <0> d          50.472  49.812  43.919  0.00  0.00    -0.389 OA
ATOM     27  H26 <0> d          50.517  50.725  44.234  0.00  0.00     0.210 HD
ENDMDL
MODEL
REMARK VINA RESULT:      -9.3    
REMARK AD4  RESULT:      -8.41   
REMARK FIN. RESULT:      -8.84   
ATOM      1  C1  <0> d          51.928  48.677  41.044  0.00  0.00     0.021 C 
ATOM      2  C2  <0> d          50.800  47.671  41.273  0.00  0.00    -0.012 C 
ATOM      3  C3  <0> d          50.107  47.998  42.607  0.00  0.00     0.022 C 
ATOM      4  C4  <0> d          51.101  47.909  43.760  0.00  0.00     0.084 C 
ATOM      5  C5  <0> d          51.798  46.576  43.737  0.00  0.00     0.149 C 
ATOM      6  O1  <0> d          52.305  46.144  44.755  0.00  0.00    -0.293 OA
ATOM      7  C6  <0> d          51.865  45.821  42.558  0.00  0.00     0.058 C 
ATOM      8  C7  <0> d          51.392  46.288  41.378  0.00  0.00    -0.046 C 
ATOM      9  C8  <0> d          51.482  45.440  40.192  0.00  0.00     0.004 C 
ATOM     10  C9  <0> d          50.953  45.812  39.038  0.00  0.00    -0.021 C 
ATOM     11  C10 <0> d          50.183  47.088  38.852  0.00  0.00     0.018 C 
ATOM     12  C11 <0> d          49.758  47.724  40.162  0.00  0.00     0.006 C 
ATOM     13  C12 <0> d          49.162  49.115  40.012  0.00  0.00     0.007 C 
ATOM     14  C13 <0> d          49.869  50.031  39.013  0.00  0.00     0.013 C 
ATOM     15  C14 <0> d          50.077  49.303  37.707  0.00  0.00    -0.009 C 
ATOM     16  C15 <0> d          50.945  48.055  37.982  0.00  0.00     0.005 C 
ATOM     17  C16 <0> d          51.264  47.570  36.560  0.00  0.00     0.009 C 
ATOM     18  C17 <0> d          51.518  48.890  35.784  0.00  0.00     0.039 C 
ATOM     19  C18 <0> d          50.869  50.027  36.614  0.00  0.00     0.066 C 
ATOM     20  C22 <0> d          48.717  48.916  37.114  0.00  0.00     0.019 C 
ATOM     21  C19 <0> d          51.946  50.932  37.202  0.00  0.00     0.049 C 
ATOM     22  C20 <0> d          51.590  52.395  36.927  0.00  0.00     0.116 C 
ATOM     23  C21 <0> d          52.438  53.290  37.795  0.00  0.00     0.172 C 
ATOM     24  O2  <0> d          52.738  54.395  37.411  0.00  0.00    -0.648 OA
ATOM     25  O4  <0> d          52.860  52.857  38.992  0.00  0.00    -0.648 OA
ATOM     26  O3  <0> d          49.976  50.784  35.793  0.00  0.00    -0.389 OA
ATOM     27  H26 <0> d          50.327  51.642  35.517  0.00  0.00     0.210 HD
ENDMDL
MODEL
REMARK VINA RESULT:      -9.4    
REMARK AD4  RESULT:      -8.41   
REMARK FIN. RESULT:      -8.89   
ATOM      1  C1  <0> d          50.537  48.189  39.637  0.00  0.00     0.021 C 
ATOM      2  C2  <0> d          51.203  48.849  40.843  0.00  0.00    -0.012 C 
ATOM      3  C3  <0> d          52.390  47.978  41.292  0.00  0.00     0.022 C 
ATOM      4  C4  <0> d          51.911  46.584  41.683  0.00  0.00     0.084 C 
ATOM      5  C5  <0> d          50.802  46.686  42.694  0.00  0.00     0.149 C 
ATOM      6  O1  <0> d          50.563  45.740  43.422  0.00  0.00    -0.293 OA
ATOM      7  C6  <0> d          50.045  47.858  42.815  0.00  0.00     0.058 C 
ATOM      8  C7  <0> d          50.211  48.910  41.977  0.00  0.00    -0.046 C 
ATOM      9  C8  <0> d          49.397  50.107  42.171  0.00  0.00     0.004 C 
ATOM     10  C9  <0> d          49.584  51.193  41.440  0.00  0.00    -0.021 C 
ATOM     11  C10 <0> d          50.660  51.317  40.399  0.00  0.00     0.018 C 
ATOM     12  C11 <0> d          51.725  50.242  40.513  0.00  0.00     0.006 C 
ATOM     13  C12 <0> d          52.708  50.217  39.353  0.00  0.00     0.007 C 
ATOM     14  C13 <0> d          52.097  50.419  37.966  0.00  0.00     0.013 C 
ATOM     15  C14 <0> d          51.184  51.622  37.978  0.00  0.00    -0.009 C 
ATOM     16  C15 <0> d          50.066  51.370  39.014  0.00  0.00     0.005 C 
ATOM     17  C16 <0> d          49.109  52.540  38.740  0.00  0.00     0.009 C 
ATOM     18  C17 <0> d          49.118  52.650  37.192  0.00  0.00     0.039 C 
ATOM     19  C18 <0> d          50.395  51.921  36.701  0.00  0.00     0.066 C 
ATOM     20  C22 <0> d          51.994  52.877  38.326  0.00  0.00     0.019 C 
ATOM     21  C19 <0> d          50.021  50.645  35.955  0.00  0.00     0.049 C 
ATOM     22  C20 <0> d          50.723  50.623  34.596  0.00  0.00     0.116 C 
ATOM     23  C21 <0> d          51.623  49.416  34.514  0.00  0.00     0.172 C 
ATOM     24  O2  <0> d          51.163  48.339  34.219  0.00  0.00    -0.648 OA
ATOM     25  O4  <0> d          52.934  49.539  34.772  0.00  0.00    -0.648 OA
ATOM     26  O3  <0> d          51.157  52.787  35.854  0.00  0.00    -0.389 OA
ATOM     27  H26 <0> d          51.178  53.707  36.151  0.00  0.00     0.210 HD
ENDMDL
MODEL
REMARK VINA RESULT:      -9.4    
REMARK AD4  RESULT:      -8.41   
REMARK FIN. RESULT:      -8.89   
ATOM      1  C1  <0> d          50.523  48.180  39.622  0.00  0.00     0.021 C 
ATOM      2  C2  <0> d          51.183  48.837  40.833  0.00  0.00    -0.012 C 
ATOM      3  C3  <0> d          52.368  47.968  41.286  0.00  0.00     0.022 C 
ATOM      4  C4  <0> d          51.889  46.571  41.670  0.00  0.00     0.084 C 
ATOM      5  C5  <0> d          50.775  46.667  42.677  0.00  0.00     0.149 C 
ATOM      6  O1  <0> d          50.535  45.720  43.401  0.00  0.00    -0.293 OA
ATOM      7  C6  <0> d          50.015  47.839  42.796  0.00  0.00     0.058 C 
ATOM      8  C7  <0> d          50.184  48.894  41.962  0.00  0.00    -0.046 C 
ATOM      9  C8  <0> d          49.367  50.088  42.156  0.00  0.00     0.004 C 
ATOM     10  C9  <0> d          49.556  51.176  41.428  0.00  0.00    -0.021 C 
ATOM     11  C10 <0> d          50.636  51.305  40.394  0.00  0.00     0.018 C 
ATOM     12  C11 <0> d          51.703  50.231  40.510  0.00  0.00     0.006 C 
ATOM     13  C12 <0> d          52.692  50.213  39.355  0.00  0.00     0.007 C 
ATOM     14  C13 <0> d          52.087  50.418  37.965  0.00  0.00     0.013 C 
ATOM     15  C14 <0> d          51.172  51.618  37.976  0.00  0.00    -0.009 C 
ATOM     16  C15 <0> d          50.049  51.361  39.006  0.00  0.00     0.005 C 
ATOM     17  C16 <0> d          49.091  52.530  38.729  0.00  0.00     0.009 C 
ATOM     18  C17 <0> d          49.107  52.643  37.182  0.00  0.00     0.039 C 
ATOM     19  C18 <0> d          50.389  51.918  36.695  0.00  0.00     0.066 C 
ATOM     20  C22 <0> d          51.978  52.873  38.332  0.00  0.00     0.019 C 
ATOM     21  C19 <0> d          50.021  50.643  35.943  0.00  0.00     0.049 C 
ATOM     22  C20 <0> d          50.744  50.620  34.595  0.00  0.00     0.116 C 
ATOM     23  C21 <0> d          51.636  49.407  34.525  0.00  0.00     0.172 C 
ATOM     24  O2  <0> d          51.167  48.327  34.255  0.00  0.00    -0.648 OA
ATOM     25  O4  <0> d          52.950  49.528  34.762  0.00  0.00    -0.648 OA
ATOM     26  O3  <0> d          51.153  52.788  35.856  0.00  0.00    -0.389 OA
ATOM     27  H26 <0> d          52.081  52.869  36.116  0.00  0.00     0.210 HD
ENDMDL
MODEL
REMARK VINA RESULT:      -9.4    
REMARK AD4  RESULT:      -8.41   
REMARK FIN. RESULT:      -8.89   
ATOM      1  C1  <0> d          51.931  48.663  41.041  0.00  0.00     0.021 C 
ATOM      2  C2  <0> d          50.805  47.656  41.268  0.00  0.00    -0.012 C 
ATOM      3  C3  <0> d          50.105  47.984  42.597  0.00  0.00     0.022 C 
ATOM      4  C4  <0> d          51.095  47.901  43.756  0.00  0.00     0.084 C 
ATOM      5  C5  <0> d          51.796  46.570  43.739  0.00  0.00     0.149 C 
ATOM      6  O1  <0> d          52.299  46.142  44.760  0.00  0.00    -0.293 OA
ATOM      7  C6  <0> d          51.869  45.812  42.562  0.00  0.00     0.058 C 
ATOM      8  C7  <0> d          51.400  46.275  41.378  0.00  0.00    -0.046 C 
ATOM      9  C8  <0> d          51.496  45.424  40.196  0.00  0.00     0.004 C 
ATOM     10  C9  <0> d          50.972  45.791  39.039  0.00  0.00    -0.021 C 
ATOM     11  C10 <0> d          50.200  47.063  38.846  0.00  0.00     0.018 C 
ATOM     12  C11 <0> d          49.768  47.703  40.153  0.00  0.00     0.006 C 
ATOM     13  C12 <0> d          49.168  49.091  39.995  0.00  0.00     0.007 C 
ATOM     14  C13 <0> d          49.877  50.006  38.997  0.00  0.00     0.013 C 
ATOM     15  C14 <0> d          50.092  49.276  37.694  0.00  0.00    -0.009 C 
ATOM     16  C15 <0> d          50.963  48.030  37.976  0.00  0.00     0.005 C 
ATOM     17  C16 <0> d          51.290  47.542  36.557  0.00  0.00     0.009 C 
ATOM     18  C17 <0> d          51.543  48.860  35.779  0.00  0.00     0.039 C 
ATOM     19  C18 <0> d          50.887  49.998  36.603  0.00  0.00     0.066 C 
ATOM     20  C22 <0> d          48.736  48.882  37.096  0.00  0.00     0.019 C 
ATOM     21  C19 <0> d          51.960  50.909  37.192  0.00  0.00     0.049 C 
ATOM     22  C20 <0> d          51.593  52.370  36.922  0.00  0.00     0.116 C 
ATOM     23  C21 <0> d          52.432  53.267  37.794  0.00  0.00     0.172 C 
ATOM     24  O2  <0> d          52.727  54.375  37.413  0.00  0.00    -0.648 OA
ATOM     25  O4  <0> d          52.852  52.836  38.992  0.00  0.00    -0.648 OA
ATOM     26  O3  <0> d          49.995  50.750  35.776  0.00  0.00    -0.389 OA
ATOM     27  H26 <0> d          50.033  50.512  34.840  0.00  0.00     0.210 HD
ENDMDL
MODEL
REMARK VINA RESULT:      -9.3    
REMARK AD4  RESULT:      -8.51   
REMARK FIN. RESULT:      -8.90   
ATOM      1  C1  <0> d          49.720  48.463  39.166  0.00  0.00     0.021 C 
ATOM      2  C2  <0> d          51.081  47.904  38.755  0.00  0.00    -0.012 C 
ATOM      3  C3  <0> d          51.731  48.870  37.750  0.00  0.00     0.022 C 
ATOM      4  C4  <0> d          50.854  49.021  36.511  0.00  0.00     0.084 C 
ATOM      5  C5  <0> d          50.529  47.666  35.943  0.00  0.00     0.149 C 
ATOM      6  O1  <0> d          50.204  47.565  34.775  0.00  0.00    -0.293 OA
ATOM      7  C6  <0> d          50.603  46.516  36.741  0.00  0.00     0.058 C 
ATOM      8  C7  <0> d          50.877  46.578  38.067  0.00  0.00    -0.046 C 
ATOM      9  C8  <0> d          50.953  45.338  38.834  0.00  0.00     0.004 C 
ATOM     10  C9  <0> d          51.307  45.336  40.108  0.00  0.00    -0.021 C 
ATOM     11  C10 <0> d          51.707  46.574  40.859  0.00  0.00     0.018 C 
ATOM     12  C11 <0> d          52.016  47.749  39.949  0.00  0.00     0.006 C 
ATOM     13  C12 <0> d          52.220  49.065  40.682  0.00  0.00     0.007 C 
ATOM     14  C13 <0> d          51.249  49.337  41.831  0.00  0.00     0.013 C 
ATOM     15  C14 <0> d          51.173  48.130  42.735  0.00  0.00    -0.009 C 
ATOM     16  C15 <0> d          50.676  46.930  41.899  0.00  0.00     0.005 C 
ATOM     17  C16 <0> d          50.423  45.871  42.982  0.00  0.00     0.009 C 
ATOM     18  C17 <0> d          49.796  46.691  44.141  0.00  0.00     0.039 C 
ATOM     19  C18 <0> d          50.166  48.175  43.888  0.00  0.00     0.066 C 
ATOM     20  C22 <0> d          52.555  47.854  43.339  0.00  0.00     0.019 C 
ATOM     21  C19 <0> d          48.920  48.974  43.520  0.00  0.00     0.049 C 
ATOM     22  C20 <0> d          48.688  50.067  44.565  0.00  0.00     0.116 C 
ATOM     23  C21 <0> d          48.927  51.418  43.941  0.00  0.00     0.172 C 
ATOM     24  O2  <0> d          48.464  51.672  42.855  0.00  0.00    -0.648 OA
ATOM     25  O4  <0> d          49.655  52.338  44.593  0.00  0.00    -0.648 OA
ATOM     26  O3  <0> d          50.788  48.729  45.051  0.00  0.00    -0.389 OA
ATOM     27  H26 <0> d          51.454  48.154  45.451  0.00  0.00     0.210 HD
ENDMDL
MODEL
REMARK VINA RESULT:      -9.3    
REMARK AD4  RESULT:      -8.51   
REMARK FIN. RESULT:      -8.90   
ATOM      1  C1  <0> d          49.722  48.468  39.165  0.00  0.00     0.021 C 
ATOM      2  C2  <0> d          51.084  47.912  38.753  0.00  0.00    -0.012 C 
ATOM      3  C3  <0> d          51.734  48.879  37.750  0.00  0.00     0.022 C 
ATOM      4  C4  <0> d          50.856  49.030  36.510  0.00  0.00     0.084 C 
ATOM      5  C5  <0> d          50.532  47.676  35.940  0.00  0.00     0.149 C 
ATOM      6  O1  <0> d          50.209  47.576  34.772  0.00  0.00    -0.293 OA
ATOM      7  C6  <0> d          50.607  46.525  36.738  0.00  0.00     0.058 C 
ATOM      8  C7  <0> d          50.881  46.585  38.063  0.00  0.00    -0.046 C 
ATOM      9  C8  <0> d          50.958  45.345  38.828  0.00  0.00     0.004 C 
ATOM     10  C9  <0> d          51.312  45.342  40.102  0.00  0.00    -0.021 C 
ATOM     11  C10 <0> d          51.710  46.579  40.854  0.00  0.00     0.018 C 
ATOM     12  C11 <0> d          52.018  47.756  39.946  0.00  0.00     0.006 C 
ATOM     13  C12 <0> d          52.221  49.071  40.682  0.00  0.00     0.007 C 
ATOM     14  C13 <0> d          51.249  49.340  41.831  0.00  0.00     0.013 C 
ATOM     15  C14 <0> d          51.174  48.133  42.734  0.00  0.00    -0.009 C 
ATOM     16  C15 <0> d          50.678  46.932  41.895  0.00  0.00     0.005 C 
ATOM     17  C16 <0> d          50.426  45.872  42.978  0.00  0.00     0.009 C 
ATOM     18  C17 <0> d          49.797  46.690  44.136  0.00  0.00     0.039 C 
ATOM     19  C18 <0> d          50.166  48.175  43.885  0.00  0.00     0.066 C 
ATOM     20  C22 <0> d          52.556  47.857  43.337  0.00  0.00     0.019 C 
ATOM     21  C19 <0> d          48.920  48.974  43.519  0.00  0.00     0.049 C 
ATOM     22  C20 <0> d          48.688  50.066  44.565  0.00  0.00     0.116 C 
ATOM     23  C21 <0> d          48.936  51.417  43.944  0.00  0.00     0.172 C 
ATOM     24  O2  <0> d          48.484  51.672  42.853  0.00  0.00    -0.648 OA
ATOM     25  O4  <0> d          49.656  52.335  44.604  0.00  0.00    -0.648 OA
ATOM     26  O3  <0> d          50.787  48.728  45.048  0.00  0.00    -0.389 OA
ATOM     27  H26 <0> d          50.632  48.219  45.856  0.00  0.00     0.210 HD
ENDMDL
MODEL
REMARK VINA RESULT:      -8.7    
REMARK AD4  RESULT:      -9.59   
REMARK FIN. RESULT:      -9.13   
ATOM      1  C1  <0> d          48.791  47.680  40.729  0.00  0.00     0.021 C 
ATOM      2  C2  <0> d          49.833  48.741  40.381  0.00  0.00    -0.012 C 
ATOM      3  C3  <0> d          49.170  49.820  39.508  0.00  0.00     0.022 C 
ATOM      4  C4  <0> d          48.629  49.206  38.220  0.00  0.00     0.084 C 
ATOM      5  C5  <0> d          49.715  48.429  37.525  0.00  0.00     0.149 C 
ATOM      6  O1  <0> d          49.629  48.211  36.331  0.00  0.00    -0.293 OA
ATOM      7  C6  <0> d          50.828  47.958  38.235  0.00  0.00     0.058 C 
ATOM      8  C7  <0> d          50.936  48.099  39.578  0.00  0.00    -0.046 C 
ATOM      9  C8  <0> d          52.131  47.597  40.249  0.00  0.00     0.004 C 
ATOM     10  C9  <0> d          52.327  47.790  41.543  0.00  0.00    -0.021 C 
ATOM     11  C10 <0> d          51.386  48.570  42.416  0.00  0.00     0.018 C 
ATOM     12  C11 <0> d          50.400  49.410  41.627  0.00  0.00     0.006 C 
ATOM     13  C12 <0> d          49.308  50.045  42.475  0.00  0.00     0.007 C 
ATOM     14  C13 <0> d          48.715  49.150  43.563  0.00  0.00     0.013 C 
ATOM     15  C14 <0> d          49.824  48.509  44.362  0.00  0.00    -0.009 C 
ATOM     16  C15 <0> d          50.688  47.665  43.399  0.00  0.00     0.005 C 
ATOM     17  C16 <0> d          51.599  46.903  44.374  0.00  0.00     0.009 C 
ATOM     18  C17 <0> d          50.643  46.539  45.541  0.00  0.00     0.039 C 
ATOM     19  C18 <0> d          49.425  47.491  45.434  0.00  0.00     0.066 C 
ATOM     20  C22 <0> d          50.658  49.600  45.047  0.00  0.00     0.019 C 
ATOM     21  C19 <0> d          48.177  46.710  45.035  0.00  0.00     0.049 C 
ATOM     22  C20 <0> d          48.151  45.375  45.780  0.00  0.00     0.116 C 
ATOM     23  C21 <0> d          47.988  44.250  44.790  0.00  0.00     0.172 C 
ATOM     24  O2  <0> d          47.827  43.119  45.181  0.00  0.00    -0.648 OA
ATOM     25  O4  <0> d          48.022  44.507  43.473  0.00  0.00    -0.648 OA
ATOM     26  O3  <0> d          49.216  48.160  46.680  0.00  0.00    -0.389 OA
ATOM     27  H26 <0> d          49.136  49.121  46.602  0.00  0.00     0.210 HD
ENDMDL
