MODEL 1
REMARK VINA RESULT:      -9.0      0.000      0.000
ATOM      1  C8  <0> d          51.420  49.971  40.990  0.00  0.00     0.253 C 
ATOM      2  O1  <0> d          50.835  50.982  41.318  0.00  0.00    -0.271 OA
ATOM      3  N1  <0> d          51.486  48.926  41.840  0.00  0.00    -0.344 N 
ATOM      4  H9  <0> d          51.953  48.118  41.578  0.00  0.00     0.163 HD
ATOM      5  C9  <0> d          50.856  49.013  43.160  0.00  0.00     0.200 C 
ATOM      6  C15 <0> d          51.143  47.838  44.055  0.00  0.00     0.250 C 
ATOM      7  N2  <0> d          49.865  47.660  44.331  0.00  0.00    -0.302 N 
ATOM      8  O2  <0> d          52.162  47.273  44.393  0.00  0.00    -0.271 OA
ATOM      9  C10 <0> d          49.429  48.508  43.195  0.00  0.00     0.125 C 
ATOM     10  C14 <0> d          49.005  47.062  45.281  0.00  0.00     0.133 C 
ATOM     11  C11 <0> d          48.375  49.471  43.762  0.00  0.00     0.034 C 
ATOM     12  C12 <0> d          47.260  48.637  44.396  0.00  0.00     0.056 C 
ATOM     13  C13 <0> d          47.756  47.559  45.309  0.00  0.00     0.045 C 
ATOM     14 Cl1  <0> d          46.646  46.904  46.471  0.00  0.00    -0.086 Cl
ATOM     15  C16 <0> d          49.442  45.977  46.172  0.00  0.00     0.228 C 
ATOM     16  O3  <0> d          49.951  46.239  47.244  0.00  0.00    -0.643 OA
ATOM     17  O4  <0> d          49.279  44.692  45.800  0.00  0.00    -0.643 OA
ATOM     18  C7  <0> d          52.069  49.882  39.634  0.00  0.00     0.307 C 
ATOM     19  C4  <0> d          52.447  51.264  39.168  0.00  0.00    -0.019 A 
ATOM     20  C3  <0> d          53.589  51.871  39.657  0.00  0.00     0.010 A 
ATOM     21  C2  <0> d          53.935  53.140  39.229  0.00  0.00     0.001 A 
ATOM     22  C1  <0> d          53.140  53.801  38.312  0.00  0.00     0.000 A 
ATOM     23  C6  <0> d          51.999  53.193  37.821  0.00  0.00     0.001 A 
ATOM     24  C5  <0> d          51.655  51.923  38.246  0.00  0.00     0.010 A 
ATOM     25  N3  <0> d          51.144  49.283  38.657  0.00  0.00    -0.062 N 
ATOM     26  H14 <0> d          51.312  48.280  38.587  0.00  0.00     0.275 HD
ATOM     27  H15 <0> d          50.181  49.446  38.943  0.00  0.00     0.275 HD
ATOM     28  H16 <0> d          51.299  49.713  37.738  0.00  0.00     0.275 HD
ENDMDL
MODEL 2
REMARK VINA RESULT:      -8.7      3.238      3.811
ATOM      1  C8  <0> d          51.551  46.661  40.501  0.00  0.00     0.253 C 
ATOM      2  O1  <0> d          52.529  47.252  40.908  0.00  0.00    -0.271 OA
ATOM      3  N1  <0> d          50.371  46.791  41.141  0.00  0.00    -0.344 N 
ATOM      4  H9  <0> d          49.589  46.319  40.815  0.00  0.00     0.163 HD
ATOM      5  C9  <0> d          50.270  47.643  42.329  0.00  0.00     0.200 C 
ATOM      6  C15 <0> d          50.278  46.885  43.629  0.00  0.00     0.250 C 
ATOM      7  N2  <0> d          49.198  47.504  44.066  0.00  0.00    -0.302 N 
ATOM      8  O2  <0> d          51.003  46.031  44.096  0.00  0.00    -0.271 OA
ATOM      9  C10 <0> d          48.850  48.001  42.711  0.00  0.00     0.125 C 
ATOM     10  C14 <0> d          48.496  47.812  45.253  0.00  0.00     0.133 C 
ATOM     11  C11 <0> d          48.540  49.497  42.872  0.00  0.00     0.034 C 
ATOM     12  C12 <0> d          47.424  49.643  43.908  0.00  0.00     0.056 C 
ATOM     13  C13 <0> d          47.657  48.859  45.162  0.00  0.00     0.045 C 
ATOM     14 Cl1  <0> d          46.781  49.324  46.586  0.00  0.00    -0.086 Cl
ATOM     15  C16 <0> d          48.669  47.045  46.496  0.00  0.00     0.228 C 
ATOM     16  O3  <0> d          48.032  46.026  46.675  0.00  0.00    -0.643 OA
ATOM     17  O4  <0> d          49.535  47.473  47.436  0.00  0.00    -0.643 OA
ATOM     18  C7  <0> d          51.654  45.785  39.280  0.00  0.00     0.307 C 
ATOM     19  C4  <0> d          51.140  46.535  38.079  0.00  0.00    -0.019 A 
ATOM     20  C3  <0> d          49.846  46.331  37.637  0.00  0.00     0.010 A 
ATOM     21  C2  <0> d          49.375  47.020  36.535  0.00  0.00     0.001 A 
ATOM     22  C1  <0> d          50.197  47.915  35.875  0.00  0.00     0.000 A 
ATOM     23  C6  <0> d          51.491  48.120  36.318  0.00  0.00     0.001 A 
ATOM     24  C5  <0> d          51.961  47.434  37.423  0.00  0.00     0.010 A 
ATOM     25  N3  <0> d          50.857  44.559  39.456  0.00  0.00    -0.062 N 
ATOM     26  H14 <0> d          51.458  43.793  39.759  0.00  0.00     0.275 HD
ATOM     27  H15 <0> d          50.128  44.713  40.150  0.00  0.00     0.275 HD
ATOM     28  H16 <0> d          50.422  44.308  38.562  0.00  0.00     0.275 HD
ENDMDL
MODEL 3
REMARK VINA RESULT:      -8.6      2.269      2.817
ATOM      1  C8  <0> d          50.707  49.624  38.752  0.00  0.00     0.253 C 
ATOM      2  O1  <0> d          51.312  48.702  38.246  0.00  0.00    -0.271 OA
ATOM      3  N1  <0> d          50.294  49.535  40.032  0.00  0.00    -0.344 N 
ATOM      4  H9  <0> d          49.811  50.272  40.437  0.00  0.00     0.163 HD
ATOM      5  C9  <0> d          50.573  48.326  40.812  0.00  0.00     0.200 C 
ATOM      6  C15 <0> d          49.341  47.591  41.264  0.00  0.00     0.250 C 
ATOM      7  N2  <0> d          49.759  47.537  42.515  0.00  0.00    -0.302 N 
ATOM      8  O2  <0> d          48.345  47.197  40.695  0.00  0.00    -0.271 OA
ATOM      9  C10 <0> d          50.789  48.581  42.288  0.00  0.00     0.125 C 
ATOM     10  C14 <0> d          49.566  46.829  43.723  0.00  0.00     0.133 C 
ATOM     11  C11 <0> d          52.091  48.034  42.895  0.00  0.00     0.034 C 
ATOM     12  C12 <0> d          51.829  47.709  44.367  0.00  0.00     0.056 C 
ATOM     13  C13 <0> d          50.584  46.910  44.597  0.00  0.00     0.045 C 
ATOM     14 Cl1  <0> d          50.442  46.041  46.092  0.00  0.00    -0.086 Cl
ATOM     15  C16 <0> d          48.344  46.062  44.004  0.00  0.00     0.228 C 
ATOM     16  O3  <0> d          47.478  46.536  44.712  0.00  0.00    -0.643 OA
ATOM     17  O4  <0> d          48.183  44.833  43.473  0.00  0.00    -0.643 OA
ATOM     18  C7  <0> d          50.419  50.867  37.951  0.00  0.00     0.307 C 
ATOM     19  C4  <0> d          51.508  51.881  38.191  0.00  0.00    -0.019 A 
ATOM     20  C3  <0> d          52.428  51.681  39.203  0.00  0.00     0.010 A 
ATOM     21  C2  <0> d          53.426  52.612  39.423  0.00  0.00     0.001 A 
ATOM     22  C1  <0> d          53.505  53.742  38.630  0.00  0.00     0.000 A 
ATOM     23  C6  <0> d          52.585  53.941  37.617  0.00  0.00     0.001 A 
ATOM     24  C5  <0> d          51.589  53.008  37.394  0.00  0.00     0.010 A 
ATOM     25  N3  <0> d          49.126  51.449  38.348  0.00  0.00    -0.062 N 
ATOM     26  H14 <0> d          48.513  50.719  38.709  0.00  0.00     0.275 HD
ATOM     27  H15 <0> d          49.267  52.158  39.065  0.00  0.00     0.275 HD
ATOM     28  H16 <0> d          48.685  51.881  37.529  0.00  0.00     0.275 HD
ENDMDL
MODEL 4
REMARK VINA RESULT:      -8.5      2.543      3.283
ATOM      1  C8  <0> d          51.477  46.624  40.375  0.00  0.00     0.253 C 
ATOM      2  O1  <0> d          52.514  46.928  40.927  0.00  0.00    -0.271 OA
ATOM      3  N1  <0> d          50.354  46.449  41.100  0.00  0.00    -0.344 N 
ATOM      4  H9  <0> d          49.526  46.207  40.659  0.00  0.00     0.163 HD
ATOM      5  C9  <0> d          50.386  46.622  42.555  0.00  0.00     0.200 C 
ATOM      6  C15 <0> d          49.185  46.059  43.266  0.00  0.00     0.250 C 
ATOM      7  N2  <0> d          48.979  47.180  43.931  0.00  0.00    -0.302 N 
ATOM      8  O2  <0> d          48.624  44.984  43.237  0.00  0.00    -0.271 OA
ATOM      9  C10 <0> d          49.859  47.961  43.027  0.00  0.00     0.125 C 
ATOM     10  C14 <0> d          48.337  47.687  45.084  0.00  0.00     0.133 C 
ATOM     11  C11 <0> d          50.787  48.779  43.938  0.00  0.00     0.034 C 
ATOM     12  C12 <0> d          49.916  49.629  44.865  0.00  0.00     0.056 C 
ATOM     13  C13 <0> d          48.814  48.862  45.529  0.00  0.00     0.045 C 
ATOM     14 Cl1  <0> d          48.103  49.538  46.961  0.00  0.00    -0.086 Cl
ATOM     15  C16 <0> d          47.228  46.984  45.746  0.00  0.00     0.228 C 
ATOM     16  O3  <0> d          47.445  46.283  46.714  0.00  0.00    -0.643 OA
ATOM     17  O4  <0> d          45.971  47.117  45.278  0.00  0.00    -0.643 OA
ATOM     18  C7  <0> d          51.445  46.445  38.879  0.00  0.00     0.307 C 
ATOM     19  C4  <0> d          51.702  47.770  38.210  0.00  0.00    -0.019 A 
ATOM     20  C3  <0> d          52.114  47.811  36.890  0.00  0.00     0.010 A 
ATOM     21  C2  <0> d          52.350  49.027  36.277  0.00  0.00     0.001 A 
ATOM     22  C1  <0> d          52.173  50.203  36.982  0.00  0.00     0.000 A 
ATOM     23  C6  <0> d          51.760  50.162  38.301  0.00  0.00     0.001 A 
ATOM     24  C5  <0> d          51.520  48.946  38.913  0.00  0.00     0.010 A 
ATOM     25  N3  <0> d          50.130  45.938  38.449  0.00  0.00    -0.062 N 
ATOM     26  H14 <0> d          49.725  45.357  39.182  0.00  0.00     0.275 HD
ATOM     27  H15 <0> d          49.505  46.715  38.247  0.00  0.00     0.275 HD
ATOM     28  H16 <0> d          50.248  45.372  37.601  0.00  0.00     0.275 HD
ENDMDL
MODEL 5
REMARK VINA RESULT:      -8.3      2.264      2.839
ATOM      1  C8  <0> d          50.772  49.761  38.833  0.00  0.00     0.253 C 
ATOM      2  O1  <0> d          49.603  50.032  38.656  0.00  0.00    -0.271 OA
ATOM      3  N1  <0> d          51.156  49.142  39.968  0.00  0.00    -0.344 N 
ATOM      4  H9  <0> d          52.090  48.926  40.110  0.00  0.00     0.163 HD
ATOM      5  C9  <0> d          50.162  48.800  40.989  0.00  0.00     0.200 C 
ATOM      6  C15 <0> d          49.951  49.871  42.024  0.00  0.00     0.250 C 
ATOM      7  N2  <0> d          50.107  49.022  43.022  0.00  0.00    -0.302 N 
ATOM      8  O2  <0> d          49.724  51.061  41.963  0.00  0.00    -0.271 OA
ATOM      9  C10 <0> d          50.718  47.994  42.144  0.00  0.00     0.125 C 
ATOM     10  C14 <0> d          49.821  48.855  44.397  0.00  0.00     0.133 C 
ATOM     11  C11 <0> d          50.000  46.674  42.467  0.00  0.00     0.034 C 
ATOM     12  C12 <0> d          50.155  46.403  43.965  0.00  0.00     0.056 C 
ATOM     13  C13 <0> d          49.832  47.583  44.829  0.00  0.00     0.045 C 
ATOM     14 Cl1  <0> d          49.457  47.288  46.498  0.00  0.00    -0.086 Cl
ATOM     15  C16 <0> d          49.533  49.989  45.287  0.00  0.00     0.228 C 
ATOM     16  O3  <0> d          50.446  50.611  45.793  0.00  0.00    -0.643 OA
ATOM     17  O4  <0> d          48.256  50.340  45.542  0.00  0.00    -0.643 OA
ATOM     18  C7  <0> d          51.795  50.115  37.785  0.00  0.00     0.307 C 
ATOM     19  C4  <0> d          52.343  51.490  38.063  0.00  0.00    -0.019 A 
ATOM     20  C3  <0> d          53.275  51.673  39.068  0.00  0.00     0.010 A 
ATOM     21  C2  <0> d          53.777  52.935  39.324  0.00  0.00     0.001 A 
ATOM     22  C1  <0> d          53.350  54.015  38.574  0.00  0.00     0.000 A 
ATOM     23  C6  <0> d          52.419  53.832  37.567  0.00  0.00     0.001 A 
ATOM     24  C5  <0> d          51.919  52.568  37.309  0.00  0.00     0.010 A 
ATOM     25  N3  <0> d          51.183  50.105  36.444  0.00  0.00    -0.062 N 
ATOM     26  H14 <0> d          50.201  49.844  36.512  0.00  0.00     0.275 HD
ATOM     27  H15 <0> d          51.261  51.026  36.018  0.00  0.00     0.275 HD
ATOM     28  H16 <0> d          51.672  49.420  35.857  0.00  0.00     0.275 HD
ENDMDL
MODEL 6
REMARK VINA RESULT:      -8.3      3.791      5.355
ATOM      1  C8  <0> d          50.992  48.309  44.564  0.00  0.00     0.253 C 
ATOM      2  O1  <0> d          51.219  49.471  44.825  0.00  0.00    -0.271 OA
ATOM      3  N1  <0> d          49.730  47.839  44.626  0.00  0.00    -0.344 N 
ATOM      4  H9  <0> d          49.549  46.910  44.417  0.00  0.00     0.163 HD
ATOM      5  C9  <0> d          48.633  48.731  45.010  0.00  0.00     0.200 C 
ATOM      6  C15 <0> d          47.323  48.028  45.242  0.00  0.00     0.250 C 
ATOM      7  N2  <0> d          46.669  48.858  44.452  0.00  0.00    -0.302 N 
ATOM      8  O2  <0> d          46.996  47.066  45.904  0.00  0.00    -0.271 OA
ATOM      9  C10 <0> d          47.919  49.369  43.837  0.00  0.00     0.125 C 
ATOM     10  C14 <0> d          45.368  49.334  44.171  0.00  0.00     0.133 C 
ATOM     11  C11 <0> d          47.807  50.902  43.854  0.00  0.00     0.034 C 
ATOM     12  C12 <0> d          46.528  51.294  43.111  0.00  0.00     0.056 C 
ATOM     13  C13 <0> d          45.320  50.519  43.539  0.00  0.00     0.045 C 
ATOM     14 Cl1  <0> d          43.759  51.191  43.187  0.00  0.00    -0.086 Cl
ATOM     15  C16 <0> d          44.156  48.588  44.542  0.00  0.00     0.228 C 
ATOM     16  O3  <0> d          43.678  48.717  45.652  0.00  0.00    -0.643 OA
ATOM     17  O4  <0> d          43.574  47.762  43.650  0.00  0.00    -0.643 OA
ATOM     18  C7  <0> d          52.120  47.391  44.171  0.00  0.00     0.307 C 
ATOM     19  C4  <0> d          51.959  46.988  42.728  0.00  0.00    -0.019 A 
ATOM     20  C3  <0> d          51.592  45.695  42.407  0.00  0.00     0.010 A 
ATOM     21  C2  <0> d          51.444  45.326  41.083  0.00  0.00     0.001 A 
ATOM     22  C1  <0> d          51.662  46.251  40.079  0.00  0.00     0.000 A 
ATOM     23  C6  <0> d          52.028  47.546  40.400  0.00  0.00     0.001 A 
ATOM     24  C5  <0> d          52.172  47.915  41.725  0.00  0.00     0.010 A 
ATOM     25  N3  <0> d          52.116  46.180  45.010  0.00  0.00    -0.062 N 
ATOM     26  H14 <0> d          52.284  46.430  45.983  0.00  0.00     0.275 HD
ATOM     27  H15 <0> d          51.220  45.704  44.931  0.00  0.00     0.275 HD
ATOM     28  H16 <0> d          52.861  45.549  44.694  0.00  0.00     0.275 HD
ENDMDL
MODEL 7
REMARK VINA RESULT:      -8.3      3.366      8.196
ATOM      1  C8  <0> d          50.680  46.880  45.008  0.00  0.00     0.253 C 
ATOM      2  O1  <0> d          51.711  46.241  45.030  0.00  0.00    -0.271 OA
ATOM      3  N1  <0> d          50.339  47.567  43.899  0.00  0.00    -0.344 N 
ATOM      4  H9  <0> d          49.515  48.077  43.880  0.00  0.00     0.163 HD
ATOM      5  C9  <0> d          51.213  47.544  42.723  0.00  0.00     0.200 C 
ATOM      6  C15 <0> d          51.071  48.747  41.830  0.00  0.00     0.250 C 
ATOM      7  N2  <0> d          50.922  48.003  40.751  0.00  0.00    -0.302 N 
ATOM      8  O2  <0> d          51.089  49.944  42.029  0.00  0.00    -0.271 OA
ATOM      9  C10 <0> d          50.642  46.782  41.546  0.00  0.00     0.125 C 
ATOM     10  C14 <0> d          51.023  48.054  39.342  0.00  0.00     0.133 C 
ATOM     11  C11 <0> d          51.528  45.675  40.953  0.00  0.00     0.034 C 
ATOM     12  C12 <0> d          51.200  45.552  39.463  0.00  0.00     0.056 C 
ATOM     13  C13 <0> d          51.174  46.862  38.739  0.00  0.00     0.045 C 
ATOM     14 Cl1  <0> d          51.341  46.839  37.012  0.00  0.00    -0.086 Cl
ATOM     15  C16 <0> d          50.967  49.317  38.590  0.00  0.00     0.228 C 
ATOM     16  O3  <0> d          51.982  49.957  38.401  0.00  0.00    -0.643 OA
ATOM     17  O4  <0> d          49.788  49.763  38.110  0.00  0.00    -0.643 OA
ATOM     18  C7  <0> d          49.782  46.904  46.217  0.00  0.00     0.307 C 
ATOM     19  C4  <0> d          48.642  45.941  46.013  0.00  0.00    -0.019 A 
ATOM     20  C3  <0> d          47.339  46.358  46.213  0.00  0.00     0.010 A 
ATOM     21  C2  <0> d          46.293  45.474  46.027  0.00  0.00     0.001 A 
ATOM     22  C1  <0> d          46.549  44.172  45.639  0.00  0.00     0.000 A 
ATOM     23  C6  <0> d          47.853  43.754  45.438  0.00  0.00     0.001 A 
ATOM     24  C5  <0> d          48.898  44.641  45.620  0.00  0.00     0.010 A 
ATOM     25  N3  <0> d          49.236  48.256  46.426  0.00  0.00    -0.062 N 
ATOM     26  H14 <0> d          49.879  48.808  46.992  0.00  0.00     0.275 HD
ATOM     27  H15 <0> d          49.092  48.718  45.530  0.00  0.00     0.275 HD
ATOM     28  H16 <0> d          48.337  48.184  46.915  0.00  0.00     0.275 HD
ENDMDL
MODEL 8
REMARK VINA RESULT:      -8.1      3.093      3.850
ATOM      1  C8  <0> d          50.754  49.388  39.804  0.00  0.00     0.253 C 
ATOM      2  O1  <0> d          49.683  49.122  39.301  0.00  0.00    -0.271 OA
ATOM      3  N1  <0> d          50.838  49.605  41.133  0.00  0.00    -0.344 N 
ATOM      4  H9  <0> d          51.693  49.818  41.535  0.00  0.00     0.163 HD
ATOM      5  C9  <0> d          49.636  49.523  41.967  0.00  0.00     0.200 C 
ATOM      6  C15 <0> d          48.912  50.832  42.130  0.00  0.00     0.250 C 
ATOM      7  N2  <0> d          48.871  50.714  43.444  0.00  0.00    -0.302 N 
ATOM      8  O2  <0> d          48.517  51.673  41.350  0.00  0.00    -0.271 OA
ATOM      9  C10 <0> d          49.906  49.652  43.451  0.00  0.00     0.125 C 
ATOM     10  C14 <0> d          48.177  51.186  44.582  0.00  0.00     0.133 C 
ATOM     11  C11 <0> d          49.360  48.529  44.347  0.00  0.00     0.034 C 
ATOM     12  C12 <0> d          49.052  49.125  45.722  0.00  0.00     0.056 C 
ATOM     13  C13 <0> d          48.263  50.396  45.667  0.00  0.00     0.045 C 
ATOM     14 Cl1  <0> d          47.411  50.886  47.097  0.00  0.00    -0.086 Cl
ATOM     15  C16 <0> d          47.419  52.446  44.580  0.00  0.00     0.228 C 
ATOM     16  O3  <0> d          46.245  52.448  44.269  0.00  0.00    -0.643 OA
ATOM     17  O4  <0> d          48.028  53.598  44.926  0.00  0.00    -0.643 OA
ATOM     18  C7  <0> d          51.990  49.474  38.947  0.00  0.00     0.307 C 
ATOM     19  C4  <0> d          52.388  50.918  38.786  0.00  0.00    -0.019 A 
ATOM     20  C3  <0> d          51.712  51.727  37.891  0.00  0.00     0.010 A 
ATOM     21  C2  <0> d          52.078  53.052  37.744  0.00  0.00     0.001 A 
ATOM     22  C1  <0> d          53.120  53.569  38.491  0.00  0.00     0.000 A 
ATOM     23  C6  <0> d          53.796  52.760  39.386  0.00  0.00     0.001 A 
ATOM     24  C5  <0> d          53.427  51.436  39.537  0.00  0.00     0.010 A 
ATOM     25  N3  <0> d          51.735  48.895  37.616  0.00  0.00    -0.062 N 
ATOM     26  H14 <0> d          52.354  49.322  36.927  0.00  0.00     0.275 HD
ATOM     27  H15 <0> d          51.892  47.890  37.637  0.00  0.00     0.275 HD
ATOM     28  H16 <0> d          50.762  49.078  37.350  0.00  0.00     0.275 HD
ENDMDL
MODEL 9
REMARK VINA RESULT:      -8.0      2.192      3.197
ATOM      1  C8  <0> d          49.704  50.996  41.047  0.00  0.00     0.253 C 
ATOM      2  O1  <0> d          48.710  51.686  41.136  0.00  0.00    -0.271 OA
ATOM      3  N1  <0> d          50.111  50.263  42.103  0.00  0.00    -0.344 N 
ATOM      4  H9  <0> d          50.905  49.712  42.032  0.00  0.00     0.163 HD
ATOM      5  C9  <0> d          49.356  50.302  43.359  0.00  0.00     0.200 C 
ATOM      6  C15 <0> d          49.961  49.480  44.464  0.00  0.00     0.250 C 
ATOM      7  N2  <0> d          48.819  48.869  44.716  0.00  0.00    -0.302 N 
ATOM      8  O2  <0> d          51.074  49.409  44.941  0.00  0.00    -0.271 OA
ATOM      9  C10 <0> d          48.224  49.299  43.427  0.00  0.00     0.125 C 
ATOM     10  C14 <0> d          48.146  48.140  45.723  0.00  0.00     0.133 C 
ATOM     11  C11 <0> d          46.833  49.858  43.765  0.00  0.00     0.034 C 
ATOM     12  C12 <0> d          46.046  48.767  44.495  0.00  0.00     0.056 C 
ATOM     13  C13 <0> d          46.807  48.117  45.609  0.00  0.00     0.045 C 
ATOM     14 Cl1  <0> d          45.902  47.272  46.825  0.00  0.00    -0.086 Cl
ATOM     15  C16 <0> d          48.857  47.457  46.815  0.00  0.00     0.228 C 
ATOM     16  O3  <0> d          49.312  48.100  47.739  0.00  0.00    -0.643 OA
ATOM     17  O4  <0> d          49.003  46.117  46.789  0.00  0.00    -0.643 OA
ATOM     18  C7  <0> d          50.481  50.957  39.757  0.00  0.00     0.307 C 
ATOM     19  C4  <0> d          50.415  49.570  39.174  0.00  0.00    -0.019 A 
ATOM     20  C3  <0> d          49.207  49.063  38.731  0.00  0.00     0.010 A 
ATOM     21  C2  <0> d          49.147  47.789  38.196  0.00  0.00     0.001 A 
ATOM     22  C1  <0> d          50.293  47.023  38.102  0.00  0.00     0.000 A 
ATOM     23  C6  <0> d          51.502  47.531  38.545  0.00  0.00     0.001 A 
ATOM     24  C5  <0> d          51.563  48.806  39.076  0.00  0.00     0.010 A 
ATOM     25  N3  <0> d          51.892  51.310  39.995  0.00  0.00    -0.062 N 
ATOM     26  H14 <0> d          52.059  52.277  39.718  0.00  0.00     0.275 HD
ATOM     27  H15 <0> d          52.120  51.195  40.980  0.00  0.00     0.275 HD
ATOM     28  H16 <0> d          52.492  50.693  39.436  0.00  0.00     0.275 HD
ENDMDL
MODEL 10
REMARK VINA RESULT:      -7.9      2.955      3.771
ATOM      1  C8  <0> d          49.218  49.810  40.330  0.00  0.00     0.253 C 
ATOM      2  O1  <0> d          49.809  50.846  40.547  0.00  0.00    -0.271 OA
ATOM      3  N1  <0> d          49.048  48.912  41.321  0.00  0.00    -0.344 N 
ATOM      4  H9  <0> d          48.576  48.083  41.148  0.00  0.00     0.163 HD
ATOM      5  C9  <0> d          49.580  49.186  42.659  0.00  0.00     0.200 C 
ATOM      6  C15 <0> d          49.512  48.013  43.598  0.00  0.00     0.250 C 
ATOM      7  N2  <0> d          48.934  48.727  44.545  0.00  0.00    -0.302 N 
ATOM      8  O2  <0> d          49.859  46.853  43.516  0.00  0.00    -0.271 OA
ATOM      9  C10 <0> d          48.578  49.816  43.602  0.00  0.00     0.125 C 
ATOM     10  C14 <0> d          48.699  48.745  45.939  0.00  0.00     0.133 C 
ATOM     11  C11 <0> d          49.006  51.126  44.282  0.00  0.00     0.034 C 
ATOM     12  C12 <0> d          48.307  51.208  45.641  0.00  0.00     0.056 C 
ATOM     13  C13 <0> d          48.415  49.954  46.452  0.00  0.00     0.045 C 
ATOM     14 Cl1  <0> d          48.146  50.069  48.163  0.00  0.00    -0.086 Cl
ATOM     15  C16 <0> d          48.760  47.531  46.767  0.00  0.00     0.228 C 
ATOM     16  O3  <0> d          49.809  47.198  47.281  0.00  0.00    -0.643 OA
ATOM     17  O4  <0> d          47.651  46.788  46.955  0.00  0.00    -0.643 OA
ATOM     18  C7  <0> d          48.673  49.526  38.954  0.00  0.00     0.307 C 
ATOM     19  C4  <0> d          49.458  48.405  38.325  0.00  0.00    -0.019 A 
ATOM     20  C3  <0> d          48.856  47.181  38.098  0.00  0.00     0.010 A 
ATOM     21  C2  <0> d          49.577  46.153  37.521  0.00  0.00     0.001 A 
ATOM     22  C1  <0> d          50.900  46.347  37.169  0.00  0.00     0.000 A 
ATOM     23  C6  <0> d          51.502  47.572  37.395  0.00  0.00     0.001 A 
ATOM     24  C5  <0> d          50.779  48.602  37.969  0.00  0.00     0.010 A 
ATOM     25  N3  <0> d          48.778  50.723  38.102  0.00  0.00    -0.062 N 
ATOM     26  H14 <0> d          48.049  51.391  38.348  0.00  0.00     0.275 HD
ATOM     27  H15 <0> d          49.691  51.158  38.221  0.00  0.00     0.275 HD
ATOM     28  H16 <0> d          48.662  50.448  37.120  0.00  0.00     0.275 HD
ENDMDL
MODEL 1
REMARK VINA RESULT:      -9.0      0.000      0.000
ATOM      1  C8  <0> d          51.402  49.999  40.972  0.00  0.00     0.253 C 
ATOM      2  O1  <0> d          50.834  51.015  41.309  0.00  0.00    -0.271 OA
ATOM      3  N1  <0> d          51.458  48.948  41.813  0.00  0.00    -0.344 N 
ATOM      4  H9  <0> d          51.913  48.135  41.543  0.00  0.00     0.163 HD
ATOM      5  C9  <0> d          50.835  49.033  43.136  0.00  0.00     0.200 C 
ATOM      6  C15 <0> d          51.129  47.859  44.029  0.00  0.00     0.250 C 
ATOM      7  N2  <0> d          49.853  47.679  44.314  0.00  0.00    -0.302 N 
ATOM      8  O2  <0> d          52.150  47.294  44.362  0.00  0.00    -0.271 OA
ATOM      9  C10 <0> d          49.409  48.527  43.179  0.00  0.00     0.125 C 
ATOM     10  C14 <0> d          48.999  47.080  45.268  0.00  0.00     0.133 C 
ATOM     11  C11 <0> d          48.356  49.489  43.753  0.00  0.00     0.034 C 
ATOM     12  C12 <0> d          47.247  48.653  44.394  0.00  0.00     0.056 C 
ATOM     13  C13 <0> d          47.750  47.576  45.303  0.00  0.00     0.045 C 
ATOM     14 Cl1  <0> d          46.648  46.919  46.472  0.00  0.00    -0.086 Cl
ATOM     15  C16 <0> d          49.443  45.994  46.157  0.00  0.00     0.228 C 
ATOM     16  O3  <0> d          49.944  46.257  47.233  0.00  0.00    -0.643 OA
ATOM     17  O4  <0> d          49.294  44.710  45.778  0.00  0.00    -0.643 OA
ATOM     18  C7  <0> d          52.044  49.911  39.611  0.00  0.00     0.307 C 
ATOM     19  C4  <0> d          52.444  51.290  39.155  0.00  0.00    -0.019 A 
ATOM     20  C3  <0> d          53.585  51.883  39.661  0.00  0.00     0.010 A 
ATOM     21  C2  <0> d          53.951  53.149  39.243  0.00  0.00     0.001 A 
ATOM     22  C1  <0> d          53.177  53.822  38.316  0.00  0.00     0.000 A 
ATOM     23  C6  <0> d          52.035  53.228  37.809  0.00  0.00     0.001 A 
ATOM     24  C5  <0> d          51.671  51.961  38.224  0.00  0.00     0.010 A 
ATOM     25  N3  <0> d          51.104  49.337  38.634  0.00  0.00    -0.062 N 
ATOM     26  H14 <0> d          51.468  48.454  38.276  0.00  0.00     0.275 HD
ATOM     27  H15 <0> d          50.199  49.177  39.072  0.00  0.00     0.275 HD
ATOM     28  H16 <0> d          50.987  49.992  37.853  0.00  0.00     0.275 HD
ENDMDL
MODEL 2
REMARK VINA RESULT:      -8.7      3.309      3.809
ATOM      1  C8  <0> d          51.571  46.684  40.487  0.00  0.00     0.253 C 
ATOM      2  O1  <0> d          52.534  47.354  40.795  0.00  0.00    -0.271 OA
ATOM      3  N1  <0> d          50.450  46.736  41.231  0.00  0.00    -0.344 N 
ATOM      4  H9  <0> d          49.679  46.200  40.986  0.00  0.00     0.163 HD
ATOM      5  C9  <0> d          50.392  47.600  42.414  0.00  0.00     0.200 C 
ATOM      6  C15 <0> d          50.324  46.852  43.717  0.00  0.00     0.250 C 
ATOM      7  N2  <0> d          49.286  47.552  44.134  0.00  0.00    -0.302 N 
ATOM      8  O2  <0> d          50.976  45.950  44.200  0.00  0.00    -0.271 OA
ATOM      9  C10 <0> d          48.997  48.064  42.771  0.00  0.00     0.125 C 
ATOM     10  C14 <0> d          48.589  47.918  45.308  0.00  0.00     0.133 C 
ATOM     11  C11 <0> d          48.795  49.581  42.920  0.00  0.00     0.034 C 
ATOM     12  C12 <0> d          47.677  49.814  43.938  0.00  0.00     0.056 C 
ATOM     13  C13 <0> d          47.832  49.022  45.198  0.00  0.00     0.045 C 
ATOM     14 Cl1  <0> d          46.970  49.560  46.606  0.00  0.00    -0.086 Cl
ATOM     15  C16 <0> d          48.685  47.147  46.558  0.00  0.00     0.228 C 
ATOM     16  O3  <0> d          49.557  47.406  47.365  0.00  0.00    -0.643 OA
ATOM     17  O4  <0> d          47.808  46.156  46.808  0.00  0.00    -0.643 OA
ATOM     18  C7  <0> d          51.629  45.796  39.272  0.00  0.00     0.307 C 
ATOM     19  C4  <0> d          51.068  46.533  38.084  0.00  0.00    -0.019 A 
ATOM     20  C3  <0> d          49.745  46.362  37.724  0.00  0.00     0.010 A 
ATOM     21  C2  <0> d          49.230  47.038  36.634  0.00  0.00     0.001 A 
ATOM     22  C1  <0> d          50.039  47.889  35.903  0.00  0.00     0.000 A 
ATOM     23  C6  <0> d          51.363  48.061  36.263  0.00  0.00     0.001 A 
ATOM     24  C5  <0> d          51.877  47.387  37.356  0.00  0.00     0.010 A 
ATOM     25  N3  <0> d          50.841  44.571  39.490  0.00  0.00    -0.062 N 
ATOM     26  H14 <0> d          50.866  44.311  40.476  0.00  0.00     0.275 HD
ATOM     27  H15 <0> d          49.875  44.721  39.204  0.00  0.00     0.275 HD
ATOM     28  H16 <0> d          51.241  43.808  38.932  0.00  0.00     0.275 HD
ENDMDL
MODEL 3
REMARK VINA RESULT:      -8.6      2.234      2.941
ATOM      1  C8  <0> d          50.598  49.751  38.942  0.00  0.00     0.253 C 
ATOM      2  O1  <0> d          51.213  48.858  38.400  0.00  0.00    -0.271 OA
ATOM      3  N1  <0> d          50.197  49.612  40.221  0.00  0.00    -0.344 N 
ATOM      4  H9  <0> d          49.705  50.327  40.655  0.00  0.00     0.163 HD
ATOM      5  C9  <0> d          50.499  48.382  40.956  0.00  0.00     0.200 C 
ATOM      6  C15 <0> d          49.284  47.602  41.375  0.00  0.00     0.250 C 
ATOM      7  N2  <0> d          49.698  47.511  42.624  0.00  0.00    -0.302 N 
ATOM      8  O2  <0> d          48.298  47.207  40.787  0.00  0.00    -0.271 OA
ATOM      9  C10 <0> d          50.704  48.586  42.441  0.00  0.00     0.125 C 
ATOM     10  C14 <0> d          49.517  46.754  43.805  0.00  0.00     0.133 C 
ATOM     11  C11 <0> d          52.017  48.047  43.034  0.00  0.00     0.034 C 
ATOM     12  C12 <0> d          51.757  47.660  44.491  0.00  0.00     0.056 C 
ATOM     13  C13 <0> d          50.530  46.826  44.685  0.00  0.00     0.045 C 
ATOM     14 Cl1  <0> d          50.403  45.897  46.147  0.00  0.00    -0.086 Cl
ATOM     15  C16 <0> d          48.311  45.949  44.051  0.00  0.00     0.228 C 
ATOM     16  O3  <0> d          48.197  44.853  43.537  0.00  0.00    -0.643 OA
ATOM     17  O4  <0> d          47.334  46.425  44.848  0.00  0.00    -0.643 OA
ATOM     18  C7  <0> d          50.286  51.017  38.187  0.00  0.00     0.307 C 
ATOM     19  C4  <0> d          51.433  51.982  38.329  0.00  0.00    -0.019 A 
ATOM     20  C3  <0> d          51.511  53.092  37.508  0.00  0.00     0.010 A 
ATOM     21  C2  <0> d          52.564  53.977  37.638  0.00  0.00     0.001 A 
ATOM     22  C1  <0> d          53.541  53.754  38.591  0.00  0.00     0.000 A 
ATOM     23  C6  <0> d          53.464  52.645  39.413  0.00  0.00     0.001 A 
ATOM     24  C5  <0> d          52.408  51.761  39.286  0.00  0.00     0.010 A 
ATOM     25  N3  <0> d          49.063  51.645  38.716  0.00  0.00    -0.062 N 
ATOM     26  H14 <0> d          48.726  52.355  38.067  0.00  0.00     0.275 HD
ATOM     27  H15 <0> d          48.340  50.941  38.853  0.00  0.00     0.275 HD
ATOM     28  H16 <0> d          49.274  52.088  39.617  0.00  0.00     0.275 HD
ENDMDL
MODEL 4
REMARK VINA RESULT:      -8.4      2.838      3.015
ATOM      1  C8  <0> d          51.323  47.054  39.712  0.00  0.00     0.253 C 
ATOM      2  O1  <0> d          52.439  47.372  40.064  0.00  0.00    -0.271 OA
ATOM      3  N1  <0> d          50.301  47.106  40.589  0.00  0.00    -0.344 N 
ATOM      4  H9  <0> d          49.408  46.852  40.309  0.00  0.00     0.163 HD
ATOM      5  C9  <0> d          50.538  47.543  41.968  0.00  0.00     0.200 C 
ATOM      6  C15 <0> d          50.648  46.416  42.958  0.00  0.00     0.250 C 
ATOM      7  N2  <0> d          49.769  46.967  43.774  0.00  0.00    -0.302 N 
ATOM      8  O2  <0> d          51.298  45.392  42.993  0.00  0.00    -0.271 OA
ATOM      9  C10 <0> d          49.278  47.897  42.727  0.00  0.00     0.125 C 
ATOM     10  C14 <0> d          49.336  46.950  45.119  0.00  0.00     0.133 C 
ATOM     11  C11 <0> d          49.238  49.289  43.379  0.00  0.00     0.034 C 
ATOM     12  C12 <0> d          48.352  49.206  44.624  0.00  0.00     0.056 C 
ATOM     13  C13 <0> d          48.669  48.047  45.515  0.00  0.00     0.045 C 
ATOM     14 Cl1  <0> d          48.132  48.121  47.164  0.00  0.00    -0.086 Cl
ATOM     15  C16 <0> d          49.595  45.815  46.020  0.00  0.00     0.228 C 
ATOM     16  O3  <0> d          50.653  45.740  46.613  0.00  0.00    -0.643 OA
ATOM     17  O4  <0> d          48.659  44.860  46.187  0.00  0.00    -0.643 OA
ATOM     18  C7  <0> d          51.078  46.605  38.295  0.00  0.00     0.307 C 
ATOM     19  C4  <0> d          51.064  47.804  37.384  0.00  0.00    -0.019 A 
ATOM     20  C3  <0> d          52.204  48.160  36.689  0.00  0.00     0.010 A 
ATOM     21  C2  <0> d          52.191  49.261  35.853  0.00  0.00     0.001 A 
ATOM     22  C1  <0> d          51.036  50.006  35.710  0.00  0.00     0.000 A 
ATOM     23  C6  <0> d          49.894  49.651  36.405  0.00  0.00     0.001 A 
ATOM     24  C5  <0> d          49.906  48.547  37.238  0.00  0.00     0.010 A 
ATOM     25  N3  <0> d          49.784  45.909  38.191  0.00  0.00    -0.062 N 
ATOM     26  H14 <0> d          49.157  46.225  38.930  0.00  0.00     0.275 HD
ATOM     27  H15 <0> d          49.359  46.095  37.284  0.00  0.00     0.275 HD
ATOM     28  H16 <0> d          49.935  44.899  38.289  0.00  0.00     0.275 HD
ENDMDL
MODEL 5
REMARK VINA RESULT:      -8.3      3.363      8.209
ATOM      1  C8  <0> d          50.658  46.932  45.062  0.00  0.00     0.253 C 
ATOM      2  O1  <0> d          51.737  46.385  45.150  0.00  0.00    -0.271 OA
ATOM      3  N1  <0> d          50.292  47.513  43.903  0.00  0.00    -0.344 N 
ATOM      4  H9  <0> d          49.429  47.951  43.831  0.00  0.00     0.163 HD
ATOM      5  C9  <0> d          51.196  47.486  42.750  0.00  0.00     0.200 C 
ATOM      6  C15 <0> d          51.107  48.703  41.872  0.00  0.00     0.250 C 
ATOM      7  N2  <0> d          50.970  47.979  40.777  0.00  0.00    -0.302 N 
ATOM      8  O2  <0> d          51.149  49.897  42.088  0.00  0.00    -0.271 OA
ATOM      9  C10 <0> d          50.639  46.754  41.547  0.00  0.00     0.125 C 
ATOM     10  C14 <0> d          51.109  48.047  39.372  0.00  0.00     0.133 C 
ATOM     11  C11 <0> d          51.513  45.633  40.961  0.00  0.00     0.034 C 
ATOM     12  C12 <0> d          51.223  45.540  39.461  0.00  0.00     0.056 C 
ATOM     13  C13 <0> d          51.248  46.860  38.757  0.00  0.00     0.045 C 
ATOM     14 Cl1  <0> d          51.460  46.857  37.034  0.00  0.00    -0.086 Cl
ATOM     15  C16 <0> d          51.103  49.322  38.637  0.00  0.00     0.228 C 
ATOM     16  O3  <0> d          52.140  49.936  38.478  0.00  0.00    -0.643 OA
ATOM     17  O4  <0> d          49.948  49.807  38.140  0.00  0.00    -0.643 OA
ATOM     18  C7  <0> d          49.729  46.961  46.247  0.00  0.00     0.307 C 
ATOM     19  C4  <0> d          48.615  45.970  46.034  0.00  0.00    -0.019 A 
ATOM     20  C3  <0> d          47.301  46.351  46.233  0.00  0.00     0.010 A 
ATOM     21  C2  <0> d          46.278  45.441  46.038  0.00  0.00     0.001 A 
ATOM     22  C1  <0> d          46.570  44.148  45.644  0.00  0.00     0.000 A 
ATOM     23  C6  <0> d          47.883  43.766  45.445  0.00  0.00     0.001 A 
ATOM     24  C5  <0> d          48.906  44.678  45.635  0.00  0.00     0.010 A 
ATOM     25  N3  <0> d          49.149  48.304  46.414  0.00  0.00    -0.062 N 
ATOM     26  H14 <0> d          48.132  48.242  46.461  0.00  0.00     0.275 HD
ATOM     27  H15 <0> d          49.501  48.733  47.269  0.00  0.00     0.275 HD
ATOM     28  H16 <0> d          49.413  48.889  45.614  0.00  0.00     0.275 HD
ENDMDL
MODEL 6
REMARK VINA RESULT:      -8.3      3.809      5.416
ATOM      1  C8  <0> d          50.971  48.359  44.565  0.00  0.00     0.253 C 
ATOM      2  O1  <0> d          51.217  49.506  44.871  0.00  0.00    -0.271 OA
ATOM      3  N1  <0> d          49.697  47.921  44.566  0.00  0.00    -0.344 N 
ATOM      4  H9  <0> d          49.501  47.002  44.321  0.00  0.00     0.163 HD
ATOM      5  C9  <0> d          48.609  48.828  44.938  0.00  0.00     0.200 C 
ATOM      6  C15 <0> d          47.303  48.137  45.219  0.00  0.00     0.250 C 
ATOM      7  N2  <0> d          46.635  48.940  44.414  0.00  0.00    -0.302 N 
ATOM      8  O2  <0> d          46.986  47.199  45.920  0.00  0.00    -0.271 OA
ATOM      9  C10 <0> d          47.874  49.426  43.758  0.00  0.00     0.125 C 
ATOM     10  C14 <0> d          45.329  49.409  44.140  0.00  0.00     0.133 C 
ATOM     11  C11 <0> d          47.765  50.960  43.723  0.00  0.00     0.034 C 
ATOM     12  C12 <0> d          46.472  51.327  42.992  0.00  0.00     0.056 C 
ATOM     13  C13 <0> d          45.272  50.571  43.468  0.00  0.00     0.045 C 
ATOM     14 Cl1  <0> d          43.706  51.234  43.123  0.00  0.00    -0.086 Cl
ATOM     15  C16 <0> d          44.123  48.678  44.559  0.00  0.00     0.228 C 
ATOM     16  O3  <0> d          43.671  47.796  43.854  0.00  0.00    -0.643 OA
ATOM     17  O4  <0> d          43.519  48.985  45.724  0.00  0.00    -0.643 OA
ATOM     18  C7  <0> d          52.090  47.425  44.183  0.00  0.00     0.307 C 
ATOM     19  C4  <0> d          51.934  47.020  42.740  0.00  0.00    -0.019 A 
ATOM     20  C3  <0> d          51.527  45.739  42.420  0.00  0.00     0.010 A 
ATOM     21  C2  <0> d          51.385  45.367  41.097  0.00  0.00     0.001 A 
ATOM     22  C1  <0> d          51.648  46.278  40.091  0.00  0.00     0.000 A 
ATOM     23  C6  <0> d          52.055  47.561  40.410  0.00  0.00     0.001 A 
ATOM     24  C5  <0> d          52.194  47.934  41.734  0.00  0.00     0.010 A 
ATOM     25  N3  <0> d          52.064  46.217  45.025  0.00  0.00    -0.062 N 
ATOM     26  H14 <0> d          52.740  45.537  44.679  0.00  0.00     0.275 HD
ATOM     27  H15 <0> d          52.288  46.458  45.988  0.00  0.00     0.275 HD
ATOM     28  H16 <0> d          51.126  45.803  44.993  0.00  0.00     0.275 HD
ENDMDL
MODEL 7
REMARK VINA RESULT:      -8.1      2.793      3.733
ATOM      1  C8  <0> d          50.721  47.648  38.823  0.00  0.00     0.253 C 
ATOM      2  O1  <0> d          49.548  47.679  38.517  0.00  0.00    -0.271 OA
ATOM      3  N1  <0> d          51.077  47.648  40.123  0.00  0.00    -0.344 N 
ATOM      4  H9  <0> d          52.015  47.624  40.369  0.00  0.00     0.163 HD
ATOM      5  C9  <0> d          50.048  47.687  41.166  0.00  0.00     0.200 C 
ATOM      6  C15 <0> d          49.976  48.993  41.908  0.00  0.00     0.250 C 
ATOM      7  N2  <0> d          50.021  48.397  43.084  0.00  0.00    -0.302 N 
ATOM      8  O2  <0> d          49.902  50.153  41.558  0.00  0.00    -0.271 OA
ATOM      9  C10 <0> d          50.497  47.120  42.495  0.00  0.00     0.125 C 
ATOM     10  C14 <0> d          49.717  48.603  44.449  0.00  0.00     0.133 C 
ATOM     11  C11 <0> d          49.616  46.016  43.103  0.00  0.00     0.034 C 
ATOM     12  C12 <0> d          49.735  46.098  44.627  0.00  0.00     0.056 C 
ATOM     13  C13 <0> d          49.566  47.480  45.173  0.00  0.00     0.045 C 
ATOM     14 Cl1  <0> d          49.157  47.645  46.852  0.00  0.00    -0.086 Cl
ATOM     15  C16 <0> d          49.577  49.946  45.035  0.00  0.00     0.228 C 
ATOM     16  O3  <0> d          48.491  50.491  45.050  0.00  0.00    -0.643 OA
ATOM     17  O4  <0> d          50.652  50.570  45.554  0.00  0.00    -0.643 OA
ATOM     18  C7  <0> d          51.779  47.609  37.752  0.00  0.00     0.307 C 
ATOM     19  C4  <0> d          51.611  48.794  36.837  0.00  0.00    -0.019 A 
ATOM     20  C3  <0> d          51.207  48.608  35.529  0.00  0.00     0.010 A 
ATOM     21  C2  <0> d          51.053  49.695  34.689  0.00  0.00     0.001 A 
ATOM     22  C1  <0> d          51.303  50.971  35.159  0.00  0.00     0.000 A 
ATOM     23  C6  <0> d          51.708  51.159  36.468  0.00  0.00     0.001 A 
ATOM     24  C5  <0> d          51.857  50.071  37.309  0.00  0.00     0.010 A 
ATOM     25  N3  <0> d          51.665  46.373  36.960  0.00  0.00    -0.062 N 
ATOM     26  H14 <0> d          50.957  45.762  37.365  0.00  0.00     0.275 HD
ATOM     27  H15 <0> d          51.410  46.596  35.999  0.00  0.00     0.275 HD
ATOM     28  H16 <0> d          52.569  45.886  36.961  0.00  0.00     0.275 HD
ENDMDL
MODEL 8
REMARK VINA RESULT:      -8.1      3.174      4.027
ATOM      1  C8  <0> d          50.937  49.542  39.202  0.00  0.00     0.253 C 
ATOM      2  O1  <0> d          51.076  48.452  39.713  0.00  0.00    -0.271 OA
ATOM      3  N1  <0> d          50.019  50.401  39.687  0.00  0.00    -0.344 N 
ATOM      4  H9  <0> d          49.907  51.274  39.278  0.00  0.00     0.163 HD
ATOM      5  C9  <0> d          49.189  50.018  40.832  0.00  0.00     0.200 C 
ATOM      6  C15 <0> d          48.240  51.092  41.289  0.00  0.00     0.250 C 
ATOM      7  N2  <0> d          48.628  50.985  42.545  0.00  0.00    -0.302 N 
ATOM      8  O2  <0> d          47.427  51.790  40.719  0.00  0.00    -0.271 OA
ATOM      9  C10 <0> d          49.853  50.232  42.175  0.00  0.00     0.125 C 
ATOM     10  C14 <0> d          48.216  51.273  43.867  0.00  0.00     0.133 C 
ATOM     11  C11 <0> d          49.907  49.017  43.116  0.00  0.00     0.034 C 
ATOM     12  C12 <0> d          49.888  49.531  44.557  0.00  0.00     0.056 C 
ATOM     13  C13 <0> d          48.823  50.548  44.822  0.00  0.00     0.045 C 
ATOM     14 Cl1  <0> d          48.348  50.816  46.470  0.00  0.00    -0.086 Cl
ATOM     15  C16 <0> d          47.199  52.291  44.174  0.00  0.00     0.228 C 
ATOM     16  O3  <0> d          46.047  51.957  44.373  0.00  0.00    -0.643 OA
ATOM     17  O4  <0> d          47.544  53.592  44.235  0.00  0.00    -0.643 OA
ATOM     18  C7  <0> d          51.790  49.937  38.024  0.00  0.00     0.307 C 
ATOM     19  C4  <0> d          52.349  51.317  38.250  0.00  0.00    -0.019 A 
ATOM     20  C3  <0> d          53.312  51.525  39.219  0.00  0.00     0.010 A 
ATOM     21  C2  <0> d          53.825  52.791  39.427  0.00  0.00     0.001 A 
ATOM     22  C1  <0> d          53.375  53.853  38.664  0.00  0.00     0.000 A 
ATOM     23  C6  <0> d          52.411  53.646  37.694  0.00  0.00     0.001 A 
ATOM     24  C5  <0> d          51.901  52.378  37.484  0.00  0.00     0.010 A 
ATOM     25  N3  <0> d          50.992  49.940  36.787  0.00  0.00    -0.062 N 
ATOM     26  H14 <0> d          50.499  49.054  36.687  0.00  0.00     0.275 HD
ATOM     27  H15 <0> d          50.317  50.702  36.809  0.00  0.00     0.275 HD
ATOM     28  H16 <0> d          51.616  50.069  35.983  0.00  0.00     0.275 HD
ENDMDL
MODEL 9
REMARK VINA RESULT:      -8.1      3.211      7.835
ATOM      1  C8  <0> d          49.781  46.058  43.659  0.00  0.00     0.253 C 
ATOM      2  O1  <0> d          50.904  45.824  44.054  0.00  0.00    -0.271 OA
ATOM      3  N1  <0> d          49.598  46.618  42.448  0.00  0.00    -0.344 N 
ATOM      4  H9  <0> d          48.700  46.805  42.131  0.00  0.00     0.163 HD
ATOM      5  C9  <0> d          50.753  46.947  41.608  0.00  0.00     0.200 C 
ATOM      6  C15 <0> d          51.139  48.400  41.639  0.00  0.00     0.250 C 
ATOM      7  N2  <0> d          51.160  48.485  40.322  0.00  0.00    -0.302 N 
ATOM      8  O2  <0> d          51.353  49.192  42.533  0.00  0.00    -0.271 OA
ATOM      9  C10 <0> d          50.405  47.217  40.160  0.00  0.00     0.125 C 
ATOM     10  C14 <0> d          51.679  49.266  39.264  0.00  0.00     0.133 C 
ATOM     11  C11 <0> d          51.169  46.398  39.106  0.00  0.00     0.034 C 
ATOM     12  C12 <0> d          51.276  47.242  37.834  0.00  0.00     0.056 C 
ATOM     13  C13 <0> d          51.742  48.642  38.075  0.00  0.00     0.045 C 
ATOM     14 Cl1  <0> d          52.401  49.521  36.731  0.00  0.00    -0.086 Cl
ATOM     15  C16 <0> d          52.116  50.659  39.450  0.00  0.00     0.228 C 
ATOM     16  O3  <0> d          53.243  50.895  39.838  0.00  0.00    -0.643 OA
ATOM     17  O4  <0> d          51.267  51.672  39.189  0.00  0.00    -0.643 OA
ATOM     18  C7  <0> d          48.593  45.721  44.522  0.00  0.00     0.307 C 
ATOM     19  C4  <0> d          48.320  46.861  45.467  0.00  0.00    -0.019 A 
ATOM     20  C3  <0> d          48.978  46.928  46.680  0.00  0.00     0.010 A 
ATOM     21  C2  <0> d          48.727  47.974  47.548  0.00  0.00     0.001 A 
ATOM     22  C1  <0> d          47.817  48.956  47.202  0.00  0.00     0.000 A 
ATOM     23  C6  <0> d          47.158  48.890  45.988  0.00  0.00     0.001 A 
ATOM     24  C5  <0> d          47.413  47.845  45.118  0.00  0.00     0.010 A 
ATOM     25  N3  <0> d          48.854  44.501  45.305  0.00  0.00    -0.062 N 
ATOM     26  H14 <0> d          48.071  43.855  45.217  0.00  0.00     0.275 HD
ATOM     27  H15 <0> d          49.705  44.049  44.974  0.00  0.00     0.275 HD
ATOM     28  H16 <0> d          48.972  44.753  46.293  0.00  0.00     0.275 HD
ENDMDL
MODEL 10
REMARK VINA RESULT:      -8.0      3.786      8.056
ATOM      1  C8  <0> d          52.102  47.600  42.878  0.00  0.00     0.253 C 
ATOM      2  O1  <0> d          53.025  46.863  42.604  0.00  0.00    -0.271 OA
ATOM      3  N1  <0> d          51.471  48.281  41.901  0.00  0.00    -0.344 N 
ATOM      4  H9  <0> d          50.733  48.871  42.120  0.00  0.00     0.163 HD
ATOM      5  C9  <0> d          51.902  48.134  40.508  0.00  0.00     0.200 C 
ATOM      6  C15 <0> d          51.620  49.335  39.648  0.00  0.00     0.250 C 
ATOM      7  N2  <0> d          51.038  48.606  38.715  0.00  0.00    -0.302 N 
ATOM      8  O2  <0> d          51.844  50.521  39.768  0.00  0.00    -0.271 OA
ATOM      9  C10 <0> d          50.891  47.439  39.621  0.00  0.00     0.125 C 
ATOM     10  C14 <0> d          50.676  48.629  37.348  0.00  0.00     0.133 C 
ATOM     11  C11 <0> d          51.395  46.220  38.830  0.00  0.00     0.034 C 
ATOM     12  C12 <0> d          50.585  46.126  37.535  0.00  0.00     0.056 C 
ATOM     13  C13 <0> d          50.479  47.421  36.793  0.00  0.00     0.045 C 
ATOM     14 Cl1  <0> d          50.066  47.359  35.108  0.00  0.00    -0.086 Cl
ATOM     15  C16 <0> d          50.526  49.881  36.591  0.00  0.00     0.228 C 
ATOM     16  O3  <0> d          51.496  50.394  36.068  0.00  0.00    -0.643 OA
ATOM     17  O4  <0> d          49.314  50.458  36.475  0.00  0.00    -0.643 OA
ATOM     18  C7  <0> d          51.659  47.752  44.310  0.00  0.00     0.307 C 
ATOM     19  C4  <0> d          50.534  46.791  44.592  0.00  0.00    -0.019 A 
ATOM     20  C3  <0> d          50.065  46.633  45.882  0.00  0.00     0.010 A 
ATOM     21  C2  <0> d          49.033  45.750  46.142  0.00  0.00     0.001 A 
ATOM     22  C1  <0> d          48.468  45.026  45.108  0.00  0.00     0.000 A 
ATOM     23  C6  <0> d          48.936  45.184  43.817  0.00  0.00     0.001 A 
ATOM     24  C5  <0> d          49.965  46.070  43.557  0.00  0.00     0.010 A 
ATOM     25  N3  <0> d          51.189  49.126  44.561  0.00  0.00    -0.062 N 
ATOM     26  H14 <0> d          50.997  49.252  45.554  0.00  0.00     0.275 HD
ATOM     27  H15 <0> d          51.896  49.796  44.265  0.00  0.00     0.275 HD
ATOM     28  H16 <0> d          50.328  49.291  44.029  0.00  0.00     0.275 HD
ENDMDL
