MODEL
REMARK VINA RESULT:      -8.9    
REMARK AD4  RESULT:      -9.34   
REMARK FIN. RESULT:      -9.12   
ATOM      1  C1  <0> d          52.095  47.775  41.758  0.00  0.00     0.019 A 
ATOM      2  C2  <0> d          52.239  47.945  40.402  0.00  0.00     0.030 A 
ATOM      3  C3  <0> d          51.868  46.927  39.526  0.00  0.00     0.028 A 
ATOM      4  C4  <0> d          51.351  45.734  40.023  0.00  0.00     0.030 A 
ATOM      5  C5  <0> d          51.203  45.557  41.380  0.00  0.00     0.019 A 
ATOM      6  C6  <0> d          51.575  46.578  42.260  0.00  0.00     0.032 A 
ATOM      7  N2  <0> d          52.016  47.102  38.156  0.00  0.00    -0.384 N 
ATOM      8  H12 <0> d          52.903  47.158  37.767  0.00  0.00     0.160 HD
ATOM      9  C13 <0> d          50.832  47.205  37.298  0.00  0.00     0.180 C 
ATOM     10  C14 <0> d          50.333  48.627  37.300  0.00  0.00     0.070 A 
ATOM     11  N4  <0> d          49.759  49.116  38.380  0.00  0.00    -0.241 NA
ATOM     12  C17 <0> d          49.323  50.369  38.380  0.00  0.00     0.174 A 
ATOM     13  C16 <0> d          49.464  51.170  37.223  0.00  0.00     0.202 A 
ATOM     14  C18 <0> d          48.681  50.967  39.563  0.00  0.00     0.292 A 
ATOM     15  N3  <0> d          50.043  50.656  36.138  0.00  0.00    -0.237 NA
ATOM     16  N6  <0> d          49.012  52.438  37.245  0.00  0.00    -0.043 NA
ATOM     17  C15 <0> d          50.475  49.410  36.159  0.00  0.00     0.147 A 
ATOM     18  C19 <0> d          48.443  52.950  38.308  0.00  0.00     0.703 A 
ATOM     19  N5  <0> d          48.265  52.251  39.466  0.00  0.00    -0.152 N 
ATOM     20  H2  <0> d          47.824  52.692  40.249  0.00  0.00     0.187 HD
ATOM     21  O4  <0> d          48.529  50.331  40.588  0.00  0.00    -0.265 OA
ATOM     22  N7  <0> d          48.006  54.248  38.254  0.00  0.00    -0.233 N 
ATOM     23  H16 <0> d          48.648  54.972  38.201  0.00  0.00     0.174 HD
ATOM     24  H17 <0> d          47.057  54.441  38.269  0.00  0.00     0.174 HD
ATOM     25  C7  <0> d          51.412  46.394  43.715  0.00  0.00     0.252 C 
ATOM     26  O1  <0> d          52.370  46.097  44.402  0.00  0.00    -0.268 OA
ATOM     27  N1  <0> d          50.199  46.555  44.282  0.00  0.00    -0.342 N 
ATOM     28  H7  <0> d          49.435  46.792  43.733  0.00  0.00     0.163 HD
ATOM     29  C8  <0> d          50.036  46.373  45.727  0.00  0.00     0.186 C 
ATOM     30  C9  <0> d          49.273  45.074  45.994  0.00  0.00     0.046 C 
ATOM     31  C10 <0> d          48.369  44.759  44.802  0.00  0.00     0.116 C 
ATOM     32  C11 <0> d          46.960  44.531  45.285  0.00  0.00     0.172 C 
ATOM     33  O2  <0> d          46.594  45.017  46.329  0.00  0.00    -0.648 OA
ATOM     34  O5  <0> d          46.113  43.786  44.557  0.00  0.00    -0.648 OA
ATOM     35  C12 <0> d          49.264  47.535  46.296  0.00  0.00     0.196 C 
ATOM     36  O3  <0> d          48.554  48.198  45.578  0.00  0.00    -0.646 OA
ATOM     37  O6  <0> d          49.365  47.833  47.600  0.00  0.00    -0.646 OA
ENDMDL
MODEL
REMARK VINA RESULT:      -9.0    
REMARK AD4  RESULT:      -8.17   
REMARK FIN. RESULT:      -8.57   
ATOM      1  C1  <0> d          44.461  48.945  45.563  0.00  0.00     0.019 A 
ATOM      2  C2  <0> d          43.196  49.482  45.591  0.00  0.00     0.030 A 
ATOM      3  C3  <0> d          42.997  50.817  45.248  0.00  0.00     0.028 A 
ATOM      4  C4  <0> d          44.079  51.612  44.878  0.00  0.00     0.030 A 
ATOM      5  C5  <0> d          45.348  51.080  44.850  0.00  0.00     0.019 A 
ATOM      6  C6  <0> d          45.551  49.739  45.193  0.00  0.00     0.032 A 
ATOM      7  N2  <0> d          41.717  51.357  45.276  0.00  0.00    -0.384 N 
ATOM      8  H12 <0> d          41.167  51.261  46.069  0.00  0.00     0.160 HD
ATOM      9  C13 <0> d          41.197  52.072  44.107  0.00  0.00     0.180 C 
ATOM     10  C14 <0> d          40.201  51.199  43.387  0.00  0.00     0.070 A 
ATOM     11  N4  <0> d          40.581  50.032  42.907  0.00  0.00    -0.241 NA
ATOM     12  C17 <0> d          39.703  49.264  42.278  0.00  0.00     0.174 A 
ATOM     13  C16 <0> d          38.366  49.700  42.115  0.00  0.00     0.202 A 
ATOM     14  C18 <0> d          40.074  47.949  41.726  0.00  0.00     0.292 A 
ATOM     15  N3  <0> d          38.002  50.886  42.604  0.00  0.00    -0.237 NA
ATOM     16  N6  <0> d          37.492  48.906  41.470  0.00  0.00    -0.043 NA
ATOM     17  C15 <0> d          38.889  51.633  43.230  0.00  0.00     0.147 A 
ATOM     18  C19 <0> d          37.845  47.740  40.988  0.00  0.00     0.703 A 
ATOM     19  N5  <0> d          39.110  47.240  41.098  0.00  0.00    -0.152 N 
ATOM     20  H2  <0> d          39.324  46.342  40.712  0.00  0.00     0.187 HD
ATOM     21  O4  <0> d          41.207  47.517  41.834  0.00  0.00    -0.265 OA
ATOM     22  N7  <0> d          36.898  46.987  40.343  0.00  0.00    -0.233 N 
ATOM     23  H16 <0> d          36.507  46.217  40.786  0.00  0.00     0.174 HD
ATOM     24  H17 <0> d          36.621  47.223  39.445  0.00  0.00     0.174 HD
ATOM     25  C7  <0> d          46.908  49.166  45.158  0.00  0.00     0.252 C 
ATOM     26  O1  <0> d          47.807  49.763  44.598  0.00  0.00    -0.268 OA
ATOM     27  N1  <0> d          47.152  47.976  45.744  0.00  0.00    -0.342 N 
ATOM     28  H7  <0> d          46.434  47.499  46.190  0.00  0.00     0.163 HD
ATOM     29  C8  <0> d          48.500  47.404  45.710  0.00  0.00     0.186 C 
ATOM     30  C9  <0> d          48.429  45.958  45.219  0.00  0.00     0.046 C 
ATOM     31  C10 <0> d          47.093  45.342  45.638  0.00  0.00     0.116 C 
ATOM     32  C11 <0> d          47.033  43.909  45.177  0.00  0.00     0.172 C 
ATOM     33  O2  <0> d          47.896  43.131  45.508  0.00  0.00    -0.648 OA
ATOM     34  O5  <0> d          46.020  43.496  44.397  0.00  0.00    -0.648 OA
ATOM     35  C12 <0> d          49.095  47.436  47.095  0.00  0.00     0.196 C 
ATOM     36  O3  <0> d          49.682  46.470  47.523  0.00  0.00    -0.646 OA
ATOM     37  O6  <0> d          48.973  48.537  47.852  0.00  0.00    -0.646 OA
ENDMDL
MODEL
REMARK VINA RESULT:      -8.9    
REMARK AD4  RESULT:      -8.16   
REMARK FIN. RESULT:      -8.52   
ATOM      1  C1  <0> d          45.476  51.234  45.087  0.00  0.00     0.019 A 
ATOM      2  C2  <0> d          44.442  52.134  45.199  0.00  0.00     0.030 A 
ATOM      3  C3  <0> d          43.135  51.680  45.354  0.00  0.00     0.028 A 
ATOM      4  C4  <0> d          42.870  50.314  45.394  0.00  0.00     0.030 A 
ATOM      5  C5  <0> d          43.900  49.408  45.280  0.00  0.00     0.019 A 
ATOM      6  C6  <0> d          45.214  49.861  45.125  0.00  0.00     0.032 A 
ATOM      7  N2  <0> d          42.093  52.592  45.469  0.00  0.00    -0.384 N 
ATOM      8  H12 <0> d          42.283  53.526  45.652  0.00  0.00     0.160 HD
ATOM      9  C13 <0> d          40.706  52.144  45.314  0.00  0.00     0.180 C 
ATOM     10  C14 <0> d          40.300  52.259  43.867  0.00  0.00     0.070 A 
ATOM     11  N4  <0> d          39.987  51.174  43.187  0.00  0.00    -0.241 NA
ATOM     12  C17 <0> d          39.626  51.278  41.915  0.00  0.00     0.174 A 
ATOM     13  C16 <0> d          39.587  52.546  41.289  0.00  0.00     0.202 A 
ATOM     14  C18 <0> d          39.262  50.098  41.112  0.00  0.00     0.292 A 
ATOM     15  N3  <0> d          39.912  53.632  41.993  0.00  0.00    -0.237 NA
ATOM     16  N6  <0> d          39.221  52.629  39.997  0.00  0.00    -0.043 NA
ATOM     17  C15 <0> d          40.264  53.509  43.257  0.00  0.00     0.147 A 
ATOM     18  C19 <0> d          38.901  51.565  39.302  0.00  0.00     0.703 A 
ATOM     19  N5  <0> d          38.911  50.303  39.822  0.00  0.00    -0.152 N 
ATOM     20  H2  <0> d          38.656  49.527  39.247  0.00  0.00     0.187 HD
ATOM     21  O4  <0> d          39.275  48.980  41.592  0.00  0.00    -0.265 OA
ATOM     22  N7  <0> d          38.539  51.727  37.990  0.00  0.00    -0.233 N 
ATOM     23  H16 <0> d          38.322  52.610  37.653  0.00  0.00     0.174 HD
ATOM     24  H17 <0> d          38.499  50.959  37.400  0.00  0.00     0.174 HD
ATOM     25  C7  <0> d          46.320  48.893  45.009  0.00  0.00     0.252 C 
ATOM     26  O1  <0> d          46.712  48.544  43.912  0.00  0.00    -0.268 OA
ATOM     27  N1  <0> d          46.895  48.392  46.121  0.00  0.00    -0.342 N 
ATOM     28  H7  <0> d          46.582  48.670  46.997  0.00  0.00     0.163 HD
ATOM     29  C8  <0> d          47.995  47.430  46.008  0.00  0.00     0.186 C 
ATOM     30  C9  <0> d          47.430  46.009  45.995  0.00  0.00     0.046 C 
ATOM     31  C10 <0> d          48.040  45.227  44.830  0.00  0.00     0.116 C 
ATOM     32  C11 <0> d          47.492  43.825  44.822  0.00  0.00     0.172 C 
ATOM     33  O2  <0> d          46.504  43.565  44.177  0.00  0.00    -0.648 OA
ATOM     34  O5  <0> d          48.100  42.862  45.534  0.00  0.00    -0.648 OA
ATOM     35  C12 <0> d          48.926  47.590  47.183  0.00  0.00     0.196 C 
ATOM     36  O3  <0> d          49.630  46.669  47.525  0.00  0.00    -0.646 OA
ATOM     37  O6  <0> d          48.973  48.754  47.847  0.00  0.00    -0.646 OA
ENDMDL
