MODEL 1
REMARK VINA RESULT:      -9.4      0.000      0.000
ATOM      1  C1  <0> d          50.537  48.189  39.637  0.00  0.00     0.021 C 
ATOM      2  C2  <0> d          51.203  48.849  40.843  0.00  0.00    -0.012 C 
ATOM      3  C3  <0> d          52.390  47.978  41.292  0.00  0.00     0.022 C 
ATOM      4  C4  <0> d          51.911  46.584  41.683  0.00  0.00     0.084 C 
ATOM      5  C5  <0> d          50.802  46.686  42.694  0.00  0.00     0.149 C 
ATOM      6  O1  <0> d          50.563  45.740  43.422  0.00  0.00    -0.293 OA
ATOM      7  C6  <0> d          50.045  47.858  42.815  0.00  0.00     0.058 C 
ATOM      8  C7  <0> d          50.211  48.910  41.977  0.00  0.00    -0.046 C 
ATOM      9  C8  <0> d          49.397  50.107  42.171  0.00  0.00     0.004 C 
ATOM     10  C9  <0> d          49.584  51.193  41.440  0.00  0.00    -0.021 C 
ATOM     11  C10 <0> d          50.660  51.317  40.399  0.00  0.00     0.018 C 
ATOM     12  C11 <0> d          51.725  50.242  40.513  0.00  0.00     0.006 C 
ATOM     13  C12 <0> d          52.708  50.217  39.353  0.00  0.00     0.007 C 
ATOM     14  C13 <0> d          52.097  50.419  37.966  0.00  0.00     0.013 C 
ATOM     15  C14 <0> d          51.184  51.622  37.978  0.00  0.00    -0.009 C 
ATOM     16  C15 <0> d          50.066  51.370  39.014  0.00  0.00     0.005 C 
ATOM     17  C16 <0> d          49.109  52.540  38.740  0.00  0.00     0.009 C 
ATOM     18  C17 <0> d          49.118  52.650  37.192  0.00  0.00     0.039 C 
ATOM     19  C18 <0> d          50.395  51.921  36.701  0.00  0.00     0.066 C 
ATOM     20  C22 <0> d          51.994  52.877  38.326  0.00  0.00     0.019 C 
ATOM     21  C19 <0> d          50.021  50.645  35.955  0.00  0.00     0.049 C 
ATOM     22  C20 <0> d          50.723  50.623  34.596  0.00  0.00     0.116 C 
ATOM     23  C21 <0> d          51.623  49.416  34.514  0.00  0.00     0.172 C 
ATOM     24  O2  <0> d          51.163  48.339  34.219  0.00  0.00    -0.648 OA
ATOM     25  O4  <0> d          52.934  49.539  34.772  0.00  0.00    -0.648 OA
ATOM     26  O3  <0> d          51.157  52.787  35.854  0.00  0.00    -0.389 OA
ATOM     27  H26 <0> d          51.178  53.707  36.151  0.00  0.00     0.210 HD
ENDMDL
MODEL 2
REMARK VINA RESULT:      -9.3      1.859      3.886
ATOM      1  C1  <0> d          51.928  48.677  41.044  0.00  0.00     0.021 C 
ATOM      2  C2  <0> d          50.800  47.671  41.273  0.00  0.00    -0.012 C 
ATOM      3  C3  <0> d          50.107  47.998  42.607  0.00  0.00     0.022 C 
ATOM      4  C4  <0> d          51.101  47.909  43.760  0.00  0.00     0.084 C 
ATOM      5  C5  <0> d          51.798  46.576  43.737  0.00  0.00     0.149 C 
ATOM      6  O1  <0> d          52.305  46.144  44.755  0.00  0.00    -0.293 OA
ATOM      7  C6  <0> d          51.865  45.821  42.558  0.00  0.00     0.058 C 
ATOM      8  C7  <0> d          51.392  46.288  41.378  0.00  0.00    -0.046 C 
ATOM      9  C8  <0> d          51.482  45.440  40.192  0.00  0.00     0.004 C 
ATOM     10  C9  <0> d          50.953  45.812  39.038  0.00  0.00    -0.021 C 
ATOM     11  C10 <0> d          50.183  47.088  38.852  0.00  0.00     0.018 C 
ATOM     12  C11 <0> d          49.758  47.724  40.162  0.00  0.00     0.006 C 
ATOM     13  C12 <0> d          49.162  49.115  40.012  0.00  0.00     0.007 C 
ATOM     14  C13 <0> d          49.869  50.031  39.013  0.00  0.00     0.013 C 
ATOM     15  C14 <0> d          50.077  49.303  37.707  0.00  0.00    -0.009 C 
ATOM     16  C15 <0> d          50.945  48.055  37.982  0.00  0.00     0.005 C 
ATOM     17  C16 <0> d          51.264  47.570  36.560  0.00  0.00     0.009 C 
ATOM     18  C17 <0> d          51.518  48.890  35.784  0.00  0.00     0.039 C 
ATOM     19  C18 <0> d          50.869  50.027  36.614  0.00  0.00     0.066 C 
ATOM     20  C22 <0> d          48.717  48.916  37.114  0.00  0.00     0.019 C 
ATOM     21  C19 <0> d          51.946  50.932  37.202  0.00  0.00     0.049 C 
ATOM     22  C20 <0> d          51.590  52.395  36.927  0.00  0.00     0.116 C 
ATOM     23  C21 <0> d          52.438  53.290  37.795  0.00  0.00     0.172 C 
ATOM     24  O2  <0> d          52.738  54.395  37.411  0.00  0.00    -0.648 OA
ATOM     25  O4  <0> d          52.860  52.857  38.992  0.00  0.00    -0.648 OA
ATOM     26  O3  <0> d          49.976  50.784  35.793  0.00  0.00    -0.389 OA
ATOM     27  H26 <0> d          50.327  51.642  35.517  0.00  0.00     0.210 HD
ENDMDL
MODEL 3
REMARK VINA RESULT:      -9.3      2.598      6.981
ATOM      1  C1  <0> d          49.720  48.463  39.166  0.00  0.00     0.021 C 
ATOM      2  C2  <0> d          51.081  47.904  38.755  0.00  0.00    -0.012 C 
ATOM      3  C3  <0> d          51.731  48.870  37.750  0.00  0.00     0.022 C 
ATOM      4  C4  <0> d          50.854  49.021  36.511  0.00  0.00     0.084 C 
ATOM      5  C5  <0> d          50.529  47.666  35.943  0.00  0.00     0.149 C 
ATOM      6  O1  <0> d          50.204  47.565  34.775  0.00  0.00    -0.293 OA
ATOM      7  C6  <0> d          50.603  46.516  36.741  0.00  0.00     0.058 C 
ATOM      8  C7  <0> d          50.877  46.578  38.067  0.00  0.00    -0.046 C 
ATOM      9  C8  <0> d          50.953  45.338  38.834  0.00  0.00     0.004 C 
ATOM     10  C9  <0> d          51.307  45.336  40.108  0.00  0.00    -0.021 C 
ATOM     11  C10 <0> d          51.707  46.574  40.859  0.00  0.00     0.018 C 
ATOM     12  C11 <0> d          52.016  47.749  39.949  0.00  0.00     0.006 C 
ATOM     13  C12 <0> d          52.220  49.065  40.682  0.00  0.00     0.007 C 
ATOM     14  C13 <0> d          51.249  49.337  41.831  0.00  0.00     0.013 C 
ATOM     15  C14 <0> d          51.173  48.130  42.735  0.00  0.00    -0.009 C 
ATOM     16  C15 <0> d          50.676  46.930  41.899  0.00  0.00     0.005 C 
ATOM     17  C16 <0> d          50.423  45.871  42.982  0.00  0.00     0.009 C 
ATOM     18  C17 <0> d          49.796  46.691  44.141  0.00  0.00     0.039 C 
ATOM     19  C18 <0> d          50.166  48.175  43.888  0.00  0.00     0.066 C 
ATOM     20  C22 <0> d          52.555  47.854  43.339  0.00  0.00     0.019 C 
ATOM     21  C19 <0> d          48.920  48.974  43.520  0.00  0.00     0.049 C 
ATOM     22  C20 <0> d          48.688  50.067  44.565  0.00  0.00     0.116 C 
ATOM     23  C21 <0> d          48.927  51.418  43.941  0.00  0.00     0.172 C 
ATOM     24  O2  <0> d          48.464  51.672  42.855  0.00  0.00    -0.648 OA
ATOM     25  O4  <0> d          49.655  52.338  44.593  0.00  0.00    -0.648 OA
ATOM     26  O3  <0> d          50.788  48.729  45.051  0.00  0.00    -0.389 OA
ATOM     27  H26 <0> d          51.454  48.154  45.451  0.00  0.00     0.210 HD
ENDMDL
MODEL 4
REMARK VINA RESULT:      -9.0      5.930      9.095
ATOM      1  C1  <0> d          44.485  50.004  44.975  0.00  0.00     0.021 C 
ATOM      2  C2  <0> d          44.209  51.364  44.336  0.00  0.00    -0.012 C 
ATOM      3  C3  <0> d          43.193  52.124  45.206  0.00  0.00     0.022 C 
ATOM      4  C4  <0> d          41.887  51.341  45.307  0.00  0.00     0.084 C 
ATOM      5  C5  <0> d          41.386  50.996  43.931  0.00  0.00     0.149 C 
ATOM      6  O1  <0> d          40.206  50.748  43.764  0.00  0.00    -0.293 OA
ATOM      7  C6  <0> d          42.260  50.964  42.836  0.00  0.00     0.058 C 
ATOM      8  C7  <0> d          43.594  51.149  42.975  0.00  0.00    -0.046 C 
ATOM      9  C8  <0> d          44.443  51.117  41.788  0.00  0.00     0.004 C 
ATOM     10  C9  <0> d          45.736  51.383  41.858  0.00  0.00    -0.021 C 
ATOM     11  C10 <0> d          46.433  51.785  43.127  0.00  0.00     0.018 C 
ATOM     12  C11 <0> d          45.474  52.207  44.224  0.00  0.00     0.006 C 
ATOM     13  C12 <0> d          46.133  52.419  45.578  0.00  0.00     0.007 C 
ATOM     14  C13 <0> d          47.190  51.384  45.965  0.00  0.00     0.013 C 
ATOM     15  C14 <0> d          48.163  51.192  44.826  0.00  0.00    -0.009 C 
ATOM     16  C15 <0> d          47.372  50.701  43.593  0.00  0.00     0.005 C 
ATOM     17  C16 <0> d          48.500  50.328  42.620  0.00  0.00     0.009 C 
ATOM     18  C17 <0> d          49.556  49.659  43.540  0.00  0.00     0.039 C 
ATOM     19  C18 <0> d          49.235  50.111  44.988  0.00  0.00     0.066 C 
ATOM     20  C22 <0> d          48.880  52.517  44.536  0.00  0.00     0.019 C 
ATOM     21  C19 <0> d          48.729  48.931  45.810  0.00  0.00     0.049 C 
ATOM     22  C20 <0> d          49.437  47.653  45.358  0.00  0.00     0.116 C 
ATOM     23  C21 <0> d          49.577  46.715  46.530  0.00  0.00     0.172 C 
ATOM     24  O2  <0> d          48.813  46.794  47.461  0.00  0.00    -0.648 OA
ATOM     25  O4  <0> d          50.553  45.793  46.537  0.00  0.00    -0.648 OA
ATOM     26  O3  <0> d          50.401  50.676  45.594  0.00  0.00    -0.389 OA
ATOM     27  H26 <0> d          50.319  51.617  45.801  0.00  0.00     0.210 HD
ENDMDL
MODEL 5
REMARK VINA RESULT:      -8.9      2.155      4.070
ATOM      1  C1  <0> d          50.056  50.053  41.161  0.00  0.00     0.021 C 
ATOM      2  C2  <0> d          49.853  48.727  41.891  0.00  0.00    -0.012 C 
ATOM      3  C3  <0> d          48.653  48.864  42.845  0.00  0.00     0.022 C 
ATOM      4  C4  <0> d          48.908  49.967  43.867  0.00  0.00     0.084 C 
ATOM      5  C5  <0> d          50.224  49.733  44.559  0.00  0.00     0.149 C 
ATOM      6  O1  <0> d          50.427  50.230  45.651  0.00  0.00    -0.293 OA
ATOM      7  C6  <0> d          51.216  48.941  43.966  0.00  0.00     0.058 C 
ATOM      8  C7  <0> d          51.078  48.431  42.718  0.00  0.00    -0.046 C 
ATOM      9  C8  <0> d          52.147  47.602  42.169  0.00  0.00     0.004 C 
ATOM     10  C9  <0> d          52.022  47.006  40.995  0.00  0.00    -0.021 C 
ATOM     11  C10 <0> d          50.779  47.079  40.156  0.00  0.00     0.018 C 
ATOM     12  C11 <0> d          49.571  47.583  40.924  0.00  0.00     0.006 C 
ATOM     13  C12 <0> d          48.355  47.864  40.055  0.00  0.00     0.007 C 
ATOM     14  C13 <0> d          48.644  48.553  38.721  0.00  0.00     0.013 C 
ATOM     15  C14 <0> d          49.764  47.837  38.005  0.00  0.00    -0.009 C 
ATOM     16  C15 <0> d          51.020  47.884  38.904  0.00  0.00     0.005 C 
ATOM     17  C16 <0> d          52.106  47.347  37.960  0.00  0.00     0.009 C 
ATOM     18  C17 <0> d          51.750  48.001  36.599  0.00  0.00     0.039 C 
ATOM     19  C18 <0> d          50.268  48.448  36.694  0.00  0.00     0.066 C 
ATOM     20  C22 <0> d          49.343  46.392  37.711  0.00  0.00     0.019 C 
ATOM     21  C19 <0> d          50.175  49.970  36.707  0.00  0.00     0.049 C 
ATOM     22  C20 <0> d          51.522  50.567  36.295  0.00  0.00     0.116 C 
ATOM     23  C21 <0> d          51.314  51.973  35.791  0.00  0.00     0.172 C 
ATOM     24  O2  <0> d          50.742  52.160  34.744  0.00  0.00    -0.648 OA
ATOM     25  O4  <0> d          51.767  53.014  36.505  0.00  0.00    -0.648 OA
ATOM     26  O3  <0> d          49.524  47.913  35.596  0.00  0.00    -0.389 OA
ATOM     27  H26 <0> d          49.996  47.233  35.096  0.00  0.00     0.210 HD
ENDMDL
MODEL 6
REMARK VINA RESULT:      -8.7      2.688      7.695
ATOM      1  C1  <0> d          48.791  47.680  40.729  0.00  0.00     0.021 C 
ATOM      2  C2  <0> d          49.833  48.741  40.381  0.00  0.00    -0.012 C 
ATOM      3  C3  <0> d          49.170  49.820  39.508  0.00  0.00     0.022 C 
ATOM      4  C4  <0> d          48.629  49.206  38.220  0.00  0.00     0.084 C 
ATOM      5  C5  <0> d          49.715  48.429  37.525  0.00  0.00     0.149 C 
ATOM      6  O1  <0> d          49.629  48.211  36.331  0.00  0.00    -0.293 OA
ATOM      7  C6  <0> d          50.828  47.958  38.235  0.00  0.00     0.058 C 
ATOM      8  C7  <0> d          50.936  48.099  39.578  0.00  0.00    -0.046 C 
ATOM      9  C8  <0> d          52.131  47.597  40.249  0.00  0.00     0.004 C 
ATOM     10  C9  <0> d          52.327  47.790  41.543  0.00  0.00    -0.021 C 
ATOM     11  C10 <0> d          51.386  48.570  42.416  0.00  0.00     0.018 C 
ATOM     12  C11 <0> d          50.400  49.410  41.627  0.00  0.00     0.006 C 
ATOM     13  C12 <0> d          49.308  50.045  42.475  0.00  0.00     0.007 C 
ATOM     14  C13 <0> d          48.715  49.150  43.563  0.00  0.00     0.013 C 
ATOM     15  C14 <0> d          49.824  48.509  44.362  0.00  0.00    -0.009 C 
ATOM     16  C15 <0> d          50.688  47.665  43.399  0.00  0.00     0.005 C 
ATOM     17  C16 <0> d          51.599  46.903  44.374  0.00  0.00     0.009 C 
ATOM     18  C17 <0> d          50.643  46.539  45.541  0.00  0.00     0.039 C 
ATOM     19  C18 <0> d          49.425  47.491  45.434  0.00  0.00     0.066 C 
ATOM     20  C22 <0> d          50.658  49.600  45.047  0.00  0.00     0.019 C 
ATOM     21  C19 <0> d          48.177  46.710  45.035  0.00  0.00     0.049 C 
ATOM     22  C20 <0> d          48.151  45.375  45.780  0.00  0.00     0.116 C 
ATOM     23  C21 <0> d          47.988  44.250  44.790  0.00  0.00     0.172 C 
ATOM     24  O2  <0> d          47.827  43.119  45.181  0.00  0.00    -0.648 OA
ATOM     25  O4  <0> d          48.022  44.507  43.473  0.00  0.00    -0.648 OA
ATOM     26  O3  <0> d          49.216  48.160  46.680  0.00  0.00    -0.389 OA
ATOM     27  H26 <0> d          49.136  49.121  46.602  0.00  0.00     0.210 HD
ENDMDL
MODEL 7
REMARK VINA RESULT:      -8.7     11.667     13.894
ATOM      1  C1  <0> d          38.207  53.445  45.555  0.00  0.00     0.021 C 
ATOM      2  C2  <0> d          39.122  52.974  46.683  0.00  0.00    -0.012 C 
ATOM      3  C3  <0> d          38.260  52.626  47.909  0.00  0.00     0.022 C 
ATOM      4  C4  <0> d          37.477  53.850  48.375  0.00  0.00     0.084 C 
ATOM      5  C5  <0> d          38.412  55.009  48.586  0.00  0.00     0.149 C 
ATOM      6  O1  <0> d          38.083  55.923  49.320  0.00  0.00    -0.293 OA
ATOM      7  C6  <0> d          39.663  55.047  47.955  0.00  0.00     0.058 C 
ATOM      8  C7  <0> d          40.048  54.101  47.066  0.00  0.00    -0.046 C 
ATOM      9  C8  <0> d          41.372  54.196  46.458  0.00  0.00     0.004 C 
ATOM     10  C9  <0> d          41.831  53.251  45.655  0.00  0.00    -0.021 C 
ATOM     11  C10 <0> d          41.074  51.993  45.338  0.00  0.00     0.018 C 
ATOM     12  C11 <0> d          39.920  51.737  46.289  0.00  0.00     0.006 C 
ATOM     13  C12 <0> d          39.014  50.589  45.871  0.00  0.00     0.007 C 
ATOM     14  C13 <0> d          38.689  50.515  44.379  0.00  0.00     0.013 C 
ATOM     15  C14 <0> d          39.960  50.626  43.571  0.00  0.00    -0.009 C 
ATOM     16  C15 <0> d          40.625  51.982  43.899  0.00  0.00     0.005 C 
ATOM     17  C16 <0> d          41.742  52.051  42.847  0.00  0.00     0.009 C 
ATOM     18  C17 <0> d          41.065  51.480  41.573  0.00  0.00     0.039 C 
ATOM     19  C18 <0> d          39.825  50.680  42.047  0.00  0.00     0.066 C 
ATOM     20  C22 <0> d          40.888  49.454  43.913  0.00  0.00     0.019 C 
ATOM     21  C19 <0> d          38.544  51.387  41.617  0.00  0.00     0.049 C 
ATOM     22  C20 <0> d          37.639  50.400  40.876  0.00  0.00     0.116 C 
ATOM     23  C21 <0> d          36.301  50.329  41.567  0.00  0.00     0.172 C 
ATOM     24  O2  <0> d          35.519  51.243  41.463  0.00  0.00    -0.648 OA
ATOM     25  O4  <0> d          35.982  49.250  42.298  0.00  0.00    -0.648 OA
ATOM     26  O3  <0> d          39.865  49.354  41.512  0.00  0.00    -0.389 OA
ATOM     27  H26 <0> d          39.016  49.043  41.169  0.00  0.00     0.210 HD
ENDMDL
MODEL 8
REMARK VINA RESULT:      -8.6      1.867      6.504
ATOM      1  C1  <0> d          51.346  48.546  39.107  0.00  0.00     0.021 C 
ATOM      2  C2  <0> d          50.456  49.209  38.057  0.00  0.00    -0.012 C 
ATOM      3  C3  <0> d          50.345  48.274  36.840  0.00  0.00     0.022 C 
ATOM      4  C4  <0> d          51.723  48.014  36.239  0.00  0.00     0.084 C 
ATOM      5  C5  <0> d          52.415  49.319  35.955  0.00  0.00     0.149 C 
ATOM      6  O1  <0> d          53.310  49.359  35.131  0.00  0.00    -0.293 OA
ATOM      7  C6  <0> d          52.037  50.493  36.621  0.00  0.00     0.058 C 
ATOM      8  C7  <0> d          51.106  50.492  37.605  0.00  0.00    -0.046 C 
ATOM      9  C8  <0> d          50.751  51.756  38.245  0.00  0.00     0.004 C 
ATOM     10  C9  <0> d          49.784  51.823  39.145  0.00  0.00    -0.021 C 
ATOM     11  C10 <0> d          48.943  50.646  39.549  0.00  0.00     0.018 C 
ATOM     12  C11 <0> d          49.053  49.478  38.588  0.00  0.00     0.006 C 
ATOM     13  C12 <0> d          48.380  48.205  39.078  0.00  0.00     0.007 C 
ATOM     14  C13 <0> d          48.579  47.883  40.559  0.00  0.00     0.013 C 
ATOM     15  C14 <0> d          48.278  49.104  41.395  0.00  0.00    -0.009 C 
ATOM     16  C15 <0> d          49.242  50.232  40.968  0.00  0.00     0.005 C 
ATOM     17  C16 <0> d          48.984  51.296  42.046  0.00  0.00     0.009 C 
ATOM     18  C17 <0> d          48.838  50.458  43.343  0.00  0.00     0.039 C 
ATOM     19  C18 <0> d          48.525  49.005  42.903  0.00  0.00     0.066 C 
ATOM     20  C22 <0> d          46.814  49.515  41.192  0.00  0.00     0.019 C 
ATOM     21  C19 <0> d          49.703  48.090  43.224  0.00  0.00     0.049 C 
ATOM     22  C20 <0> d          49.229  46.942  44.118  0.00  0.00     0.116 C 
ATOM     23  C21 <0> d          49.240  45.656  43.331  0.00  0.00     0.172 C 
ATOM     24  O2  <0> d          48.320  44.881  43.430  0.00  0.00    -0.648 OA
ATOM     25  O4  <0> d          50.273  45.375  42.523  0.00  0.00    -0.648 OA
ATOM     26  O3  <0> d          47.341  48.539  43.556  0.00  0.00    -0.389 OA
ATOM     27  H26 <0> d          47.507  48.091  44.397  0.00  0.00     0.210 HD
ENDMDL
MODEL 9
REMARK VINA RESULT:      -8.5      5.924      8.721
ATOM      1  C1  <0> d          46.221  49.381  45.125  0.00  0.00     0.021 C 
ATOM      2  C2  <0> d          46.789  50.539  44.306  0.00  0.00    -0.012 C 
ATOM      3  C3  <0> d          46.543  51.852  45.068  0.00  0.00     0.022 C 
ATOM      4  C4  <0> d          45.048  52.073  45.281  0.00  0.00     0.084 C 
ATOM      5  C5  <0> d          44.321  51.975  43.967  0.00  0.00     0.149 C 
ATOM      6  O1  <0> d          43.232  52.502  43.841  0.00  0.00    -0.293 OA
ATOM      7  C6  <0> d          44.886  51.289  42.883  0.00  0.00     0.058 C 
ATOM      8  C7  <0> d          46.056  50.614  42.991  0.00  0.00    -0.046 C 
ATOM      9  C8  <0> d          46.593  49.934  41.815  0.00  0.00     0.004 C 
ATOM     10  C9  <0> d          47.774  49.340  41.844  0.00  0.00    -0.021 C 
ATOM     11  C10 <0> d          48.679  49.349  43.043  0.00  0.00     0.018 C 
ATOM     12  C11 <0> d          48.288  50.389  44.075  0.00  0.00     0.006 C 
ATOM     13  C12 <0> d          49.054  50.283  45.384  0.00  0.00     0.007 C 
ATOM     14  C13 <0> d          49.274  48.863  45.906  0.00  0.00     0.013 C 
ATOM     15  C14 <0> d          49.814  47.987  44.800  0.00  0.00    -0.009 C 
ATOM     16  C15 <0> d          48.784  47.972  43.649  0.00  0.00     0.005 C 
ATOM     17  C16 <0> d          49.348  46.877  42.732  0.00  0.00     0.009 C 
ATOM     18  C17 <0> d          49.840  45.797  43.731  0.00  0.00     0.039 C 
ATOM     19  C18 <0> d          49.998  46.498  45.104  0.00  0.00     0.066 C 
ATOM     20  C22 <0> d          51.167  48.534  44.329  0.00  0.00     0.019 C 
ATOM     21  C19 <0> d          48.945  45.987  46.082  0.00  0.00     0.049 C 
ATOM     22  C20 <0> d          48.465  44.604  45.639  0.00  0.00     0.116 C 
ATOM     23  C21 <0> d          46.960  44.597  45.555  0.00  0.00     0.172 C 
ATOM     24  O2  <0> d          46.343  43.602  45.851  0.00  0.00    -0.648 OA
ATOM     25  O4  <0> d          46.307  45.698  45.151  0.00  0.00    -0.648 OA
ATOM     26  O3  <0> d          51.311  46.270  45.623  0.00  0.00    -0.389 OA
ATOM     27  H26 <0> d          51.512  45.339  45.789  0.00  0.00     0.210 HD
ENDMDL
MODEL 10
REMARK VINA RESULT:      -8.5      2.605      4.605
ATOM      1  C1  <0> d          50.398  49.145  43.786  0.00  0.00     0.021 C 
ATOM      2  C2  <0> d          49.411  47.993  43.608  0.00  0.00    -0.012 C 
ATOM      3  C3  <0> d          48.208  48.221  44.541  0.00  0.00     0.022 C 
ATOM      4  C4  <0> d          48.664  48.272  45.996  0.00  0.00     0.084 C 
ATOM      5  C5  <0> d          49.477  47.049  46.323  0.00  0.00     0.149 C 
ATOM      6  O1  <0> d          49.588  46.692  47.481  0.00  0.00    -0.293 OA
ATOM      7  C6  <0> d          50.103  46.310  45.310  0.00  0.00     0.058 C 
ATOM      8  C7  <0> d          50.082  46.706  44.015  0.00  0.00    -0.046 C 
ATOM      9  C8  <0> d          50.743  45.878  43.010  0.00  0.00     0.004 C 
ATOM     10  C9  <0> d          50.674  46.171  41.722  0.00  0.00    -0.021 C 
ATOM     11  C10 <0> d          49.886  47.328  41.176  0.00  0.00     0.018 C 
ATOM     12  C11 <0> d          48.899  47.900  42.175  0.00  0.00     0.006 C 
ATOM     13  C12 <0> d          48.239  49.194  41.725  0.00  0.00     0.007 C 
ATOM     14  C13 <0> d          49.162  50.199  41.036  0.00  0.00     0.013 C 
ATOM     15  C14 <0> d          49.964  49.506  39.960  0.00  0.00    -0.009 C 
ATOM     16  C15 <0> d          50.802  48.391  40.624  0.00  0.00     0.005 C 
ATOM     17  C16 <0> d          51.719  47.954  39.472  0.00  0.00     0.009 C 
ATOM     18  C17 <0> d          52.090  49.295  38.786  0.00  0.00     0.039 C 
ATOM     19  C18 <0> d          51.025  50.332  39.229  0.00  0.00     0.066 C 
ATOM     20  C22 <0> d          49.012  48.933  38.902  0.00  0.00     0.019 C 
ATOM     21  C19 <0> d          51.655  51.379  40.141  0.00  0.00     0.049 C 
ATOM     22  C20 <0> d          53.116  51.593  39.740  0.00  0.00     0.116 C 
ATOM     23  C21 <0> d          53.250  52.905  39.011  0.00  0.00     0.172 C 
ATOM     24  O2  <0> d          52.421  53.230  38.195  0.00  0.00    -0.648 OA
ATOM     25  O4  <0> d          54.291  53.712  39.270  0.00  0.00    -0.648 OA
ATOM     26  O3  <0> d          50.444  50.957  38.081  0.00  0.00    -0.389 OA
ATOM     27  H26 <0> d          49.795  50.407  37.621  0.00  0.00     0.210 HD
ENDMDL
MODEL 1
REMARK VINA RESULT:      -9.4      0.000      0.000
ATOM      1  C1  <0> d          50.523  48.180  39.622  0.00  0.00     0.021 C 
ATOM      2  C2  <0> d          51.183  48.837  40.833  0.00  0.00    -0.012 C 
ATOM      3  C3  <0> d          52.368  47.968  41.286  0.00  0.00     0.022 C 
ATOM      4  C4  <0> d          51.889  46.571  41.670  0.00  0.00     0.084 C 
ATOM      5  C5  <0> d          50.775  46.667  42.677  0.00  0.00     0.149 C 
ATOM      6  O1  <0> d          50.535  45.720  43.401  0.00  0.00    -0.293 OA
ATOM      7  C6  <0> d          50.015  47.839  42.796  0.00  0.00     0.058 C 
ATOM      8  C7  <0> d          50.184  48.894  41.962  0.00  0.00    -0.046 C 
ATOM      9  C8  <0> d          49.367  50.088  42.156  0.00  0.00     0.004 C 
ATOM     10  C9  <0> d          49.556  51.176  41.428  0.00  0.00    -0.021 C 
ATOM     11  C10 <0> d          50.636  51.305  40.394  0.00  0.00     0.018 C 
ATOM     12  C11 <0> d          51.703  50.231  40.510  0.00  0.00     0.006 C 
ATOM     13  C12 <0> d          52.692  50.213  39.355  0.00  0.00     0.007 C 
ATOM     14  C13 <0> d          52.087  50.418  37.965  0.00  0.00     0.013 C 
ATOM     15  C14 <0> d          51.172  51.618  37.976  0.00  0.00    -0.009 C 
ATOM     16  C15 <0> d          50.049  51.361  39.006  0.00  0.00     0.005 C 
ATOM     17  C16 <0> d          49.091  52.530  38.729  0.00  0.00     0.009 C 
ATOM     18  C17 <0> d          49.107  52.643  37.182  0.00  0.00     0.039 C 
ATOM     19  C18 <0> d          50.389  51.918  36.695  0.00  0.00     0.066 C 
ATOM     20  C22 <0> d          51.978  52.873  38.332  0.00  0.00     0.019 C 
ATOM     21  C19 <0> d          50.021  50.643  35.943  0.00  0.00     0.049 C 
ATOM     22  C20 <0> d          50.744  50.620  34.595  0.00  0.00     0.116 C 
ATOM     23  C21 <0> d          51.636  49.407  34.525  0.00  0.00     0.172 C 
ATOM     24  O2  <0> d          51.167  48.327  34.255  0.00  0.00    -0.648 OA
ATOM     25  O4  <0> d          52.950  49.528  34.762  0.00  0.00    -0.648 OA
ATOM     26  O3  <0> d          51.153  52.788  35.856  0.00  0.00    -0.389 OA
ATOM     27  H26 <0> d          52.081  52.869  36.116  0.00  0.00     0.210 HD
ENDMDL
MODEL 2
REMARK VINA RESULT:      -9.4      1.861      3.890
ATOM      1  C1  <0> d          51.931  48.663  41.041  0.00  0.00     0.021 C 
ATOM      2  C2  <0> d          50.805  47.656  41.268  0.00  0.00    -0.012 C 
ATOM      3  C3  <0> d          50.105  47.984  42.597  0.00  0.00     0.022 C 
ATOM      4  C4  <0> d          51.095  47.901  43.756  0.00  0.00     0.084 C 
ATOM      5  C5  <0> d          51.796  46.570  43.739  0.00  0.00     0.149 C 
ATOM      6  O1  <0> d          52.299  46.142  44.760  0.00  0.00    -0.293 OA
ATOM      7  C6  <0> d          51.869  45.812  42.562  0.00  0.00     0.058 C 
ATOM      8  C7  <0> d          51.400  46.275  41.378  0.00  0.00    -0.046 C 
ATOM      9  C8  <0> d          51.496  45.424  40.196  0.00  0.00     0.004 C 
ATOM     10  C9  <0> d          50.972  45.791  39.039  0.00  0.00    -0.021 C 
ATOM     11  C10 <0> d          50.200  47.063  38.846  0.00  0.00     0.018 C 
ATOM     12  C11 <0> d          49.768  47.703  40.153  0.00  0.00     0.006 C 
ATOM     13  C12 <0> d          49.168  49.091  39.995  0.00  0.00     0.007 C 
ATOM     14  C13 <0> d          49.877  50.006  38.997  0.00  0.00     0.013 C 
ATOM     15  C14 <0> d          50.092  49.276  37.694  0.00  0.00    -0.009 C 
ATOM     16  C15 <0> d          50.963  48.030  37.976  0.00  0.00     0.005 C 
ATOM     17  C16 <0> d          51.290  47.542  36.557  0.00  0.00     0.009 C 
ATOM     18  C17 <0> d          51.543  48.860  35.779  0.00  0.00     0.039 C 
ATOM     19  C18 <0> d          50.887  49.998  36.603  0.00  0.00     0.066 C 
ATOM     20  C22 <0> d          48.736  48.882  37.096  0.00  0.00     0.019 C 
ATOM     21  C19 <0> d          51.960  50.909  37.192  0.00  0.00     0.049 C 
ATOM     22  C20 <0> d          51.593  52.370  36.922  0.00  0.00     0.116 C 
ATOM     23  C21 <0> d          52.432  53.267  37.794  0.00  0.00     0.172 C 
ATOM     24  O2  <0> d          52.727  54.375  37.413  0.00  0.00    -0.648 OA
ATOM     25  O4  <0> d          52.852  52.836  38.992  0.00  0.00    -0.648 OA
ATOM     26  O3  <0> d          49.995  50.750  35.776  0.00  0.00    -0.389 OA
ATOM     27  H26 <0> d          50.033  50.512  34.840  0.00  0.00     0.210 HD
ENDMDL
MODEL 3
REMARK VINA RESULT:      -9.3      2.593      6.977
ATOM      1  C1  <0> d          49.722  48.468  39.165  0.00  0.00     0.021 C 
ATOM      2  C2  <0> d          51.084  47.912  38.753  0.00  0.00    -0.012 C 
ATOM      3  C3  <0> d          51.734  48.879  37.750  0.00  0.00     0.022 C 
ATOM      4  C4  <0> d          50.856  49.030  36.510  0.00  0.00     0.084 C 
ATOM      5  C5  <0> d          50.532  47.676  35.940  0.00  0.00     0.149 C 
ATOM      6  O1  <0> d          50.209  47.576  34.772  0.00  0.00    -0.293 OA
ATOM      7  C6  <0> d          50.607  46.525  36.738  0.00  0.00     0.058 C 
ATOM      8  C7  <0> d          50.881  46.585  38.063  0.00  0.00    -0.046 C 
ATOM      9  C8  <0> d          50.958  45.345  38.828  0.00  0.00     0.004 C 
ATOM     10  C9  <0> d          51.312  45.342  40.102  0.00  0.00    -0.021 C 
ATOM     11  C10 <0> d          51.710  46.579  40.854  0.00  0.00     0.018 C 
ATOM     12  C11 <0> d          52.018  47.756  39.946  0.00  0.00     0.006 C 
ATOM     13  C12 <0> d          52.221  49.071  40.682  0.00  0.00     0.007 C 
ATOM     14  C13 <0> d          51.249  49.340  41.831  0.00  0.00     0.013 C 
ATOM     15  C14 <0> d          51.174  48.133  42.734  0.00  0.00    -0.009 C 
ATOM     16  C15 <0> d          50.678  46.932  41.895  0.00  0.00     0.005 C 
ATOM     17  C16 <0> d          50.426  45.872  42.978  0.00  0.00     0.009 C 
ATOM     18  C17 <0> d          49.797  46.690  44.136  0.00  0.00     0.039 C 
ATOM     19  C18 <0> d          50.166  48.175  43.885  0.00  0.00     0.066 C 
ATOM     20  C22 <0> d          52.556  47.857  43.337  0.00  0.00     0.019 C 
ATOM     21  C19 <0> d          48.920  48.974  43.519  0.00  0.00     0.049 C 
ATOM     22  C20 <0> d          48.688  50.066  44.565  0.00  0.00     0.116 C 
ATOM     23  C21 <0> d          48.936  51.417  43.944  0.00  0.00     0.172 C 
ATOM     24  O2  <0> d          48.484  51.672  42.853  0.00  0.00    -0.648 OA
ATOM     25  O4  <0> d          49.656  52.335  44.604  0.00  0.00    -0.648 OA
ATOM     26  O3  <0> d          50.787  48.728  45.048  0.00  0.00    -0.389 OA
ATOM     27  H26 <0> d          50.632  48.219  45.856  0.00  0.00     0.210 HD
ENDMDL
MODEL 4
REMARK VINA RESULT:      -9.2      2.732      6.804
ATOM      1  C1  <0> d          50.139  50.361  37.968  0.00  0.00     0.021 C 
ATOM      2  C2  <0> d          51.141  49.261  37.623  0.00  0.00    -0.012 C 
ATOM      3  C3  <0> d          52.276  49.870  36.782  0.00  0.00     0.022 C 
ATOM      4  C4  <0> d          51.722  50.468  35.492  0.00  0.00     0.084 C 
ATOM      5  C5  <0> d          50.894  49.444  34.763  0.00  0.00     0.149 C 
ATOM      6  O1  <0> d          50.708  49.562  33.568  0.00  0.00    -0.293 OA
ATOM      7  C6  <0> d          50.342  48.351  35.445  0.00  0.00     0.058 C 
ATOM      8  C7  <0> d          50.448  48.213  36.789  0.00  0.00    -0.046 C 
ATOM      9  C8  <0> d          49.861  47.040  37.429  0.00  0.00     0.004 C 
ATOM     10  C9  <0> d          50.015  46.812  38.723  0.00  0.00    -0.021 C 
ATOM     11  C10 <0> d          50.833  47.688  39.627  0.00  0.00     0.018 C 
ATOM     12  C11 <0> d          51.749  48.634  38.871  0.00  0.00     0.006 C 
ATOM     13  C12 <0> d          52.432  49.670  39.750  0.00  0.00     0.007 C 
ATOM     14  C13 <0> d          51.553  50.300  40.831  0.00  0.00     0.013 C 
ATOM     15  C14 <0> d          50.830  49.220  41.599  0.00  0.00    -0.009 C 
ATOM     16  C15 <0> d          49.953  48.425  40.604  0.00  0.00     0.005 C 
ATOM     17  C16 <0> d          49.117  47.548  41.549  0.00  0.00     0.009 C 
ATOM     18  C17 <0> d          48.788  48.506  42.724  0.00  0.00     0.039 C 
ATOM     19  C18 <0> d          49.817  49.665  42.656  0.00  0.00     0.066 C 
ATOM     20  C22 <0> d          51.852  48.310  42.289  0.00  0.00     0.019 C 
ATOM     21  C19 <0> d          49.122  50.965  42.265  0.00  0.00     0.049 C 
ATOM     22  C20 <0> d          48.085  51.330  43.329  0.00  0.00     0.116 C 
ATOM     23  C21 <0> d          48.558  52.536  44.098  0.00  0.00     0.172 C 
ATOM     24  O2  <0> d          49.651  52.533  44.614  0.00  0.00    -0.648 OA
ATOM     25  O4  <0> d          47.767  53.613  44.209  0.00  0.00    -0.648 OA
ATOM     26  O3  <0> d          50.472  49.812  43.919  0.00  0.00    -0.389 OA
ATOM     27  H26 <0> d          50.517  50.725  44.234  0.00  0.00     0.210 HD
ENDMDL
MODEL 5
REMARK VINA RESULT:      -9.1      2.697      6.785
ATOM      1  C1  <0> d          51.514  51.726  40.527  0.00  0.00     0.021 C 
ATOM      2  C2  <0> d          52.187  51.200  39.260  0.00  0.00    -0.012 C 
ATOM      3  C3  <0> d          53.699  51.462  39.354  0.00  0.00     0.022 C 
ATOM      4  C4  <0> d          53.974  52.957  39.485  0.00  0.00     0.084 C 
ATOM      5  C5  <0> d          53.286  53.706  38.376  0.00  0.00     0.149 C 
ATOM      6  O1  <0> d          53.687  54.808  38.055  0.00  0.00    -0.293 OA
ATOM      7  C6  <0> d          52.192  53.145  37.702  0.00  0.00     0.058 C 
ATOM      8  C7  <0> d          51.652  51.958  38.071  0.00  0.00    -0.046 C 
ATOM      9  C8  <0> d          50.523  51.428  37.314  0.00  0.00     0.004 C 
ATOM     10  C9  <0> d          50.019  50.234  37.575  0.00  0.00    -0.021 C 
ATOM     11  C10 <0> d          50.578  49.308  38.616  0.00  0.00     0.018 C 
ATOM     12  C11 <0> d          51.968  49.703  39.080  0.00  0.00     0.006 C 
ATOM     13  C12 <0> d          52.471  48.909  40.276  0.00  0.00     0.007 C 
ATOM     14  C13 <0> d          51.440  48.648  41.375  0.00  0.00     0.013 C 
ATOM     15  C14 <0> d          50.168  48.108  40.767  0.00  0.00    -0.009 C 
ATOM     16  C15 <0> d          49.623  49.160  39.773  0.00  0.00     0.005 C 
ATOM     17  C16 <0> d          48.239  48.588  39.434  0.00  0.00     0.009 C 
ATOM     18  C17 <0> d          47.731  48.053  40.798  0.00  0.00     0.039 C 
ATOM     19  C18 <0> d          48.979  47.886  41.704  0.00  0.00     0.066 C 
ATOM     20  C22 <0> d          50.460  46.777  40.064  0.00  0.00     0.019 C 
ATOM     21  C19 <0> d          48.949  48.908  42.837  0.00  0.00     0.049 C 
ATOM     22  C20 <0> d          48.833  48.180  44.177  0.00  0.00     0.116 C 
ATOM     23  C21 <0> d          50.083  48.413  44.985  0.00  0.00     0.172 C 
ATOM     24  O2  <0> d          50.435  47.596  45.803  0.00  0.00    -0.648 OA
ATOM     25  O4  <0> d          50.805  49.527  44.796  0.00  0.00    -0.648 OA
ATOM     26  O3  <0> d          49.025  46.558  42.234  0.00  0.00    -0.389 OA
ATOM     27  H26 <0> d          49.254  46.517  43.172  0.00  0.00     0.210 HD
ENDMDL
MODEL 6
REMARK VINA RESULT:      -9.0      2.454      7.420
ATOM      1  C1  <0> d          49.749  48.561  39.207  0.00  0.00     0.021 C 
ATOM      2  C2  <0> d          51.132  48.064  38.789  0.00  0.00    -0.012 C 
ATOM      3  C3  <0> d          51.789  49.124  37.889  0.00  0.00     0.022 C 
ATOM      4  C4  <0> d          50.942  49.363  36.641  0.00  0.00     0.084 C 
ATOM      5  C5  <0> d          50.660  48.056  35.952  0.00  0.00     0.149 C 
ATOM      6  O1  <0> d          50.371  48.049  34.771  0.00  0.00    -0.293 OA
ATOM      7  C6  <0> d          50.736  46.844  36.652  0.00  0.00     0.058 C 
ATOM      8  C7  <0> d          50.974  46.797  37.986  0.00  0.00    -0.046 C 
ATOM      9  C8  <0> d          51.054  45.499  38.646  0.00  0.00     0.004 C 
ATOM     10  C9  <0> d          51.374  45.395  39.925  0.00  0.00    -0.021 C 
ATOM     11  C10 <0> d          51.727  46.571  40.789  0.00  0.00     0.018 C 
ATOM     12  C11 <0> d          52.036  47.825  39.991  0.00  0.00     0.006 C 
ATOM     13  C12 <0> d          52.194  49.077  40.839  0.00  0.00     0.007 C 
ATOM     14  C13 <0> d          51.186  49.232  41.979  0.00  0.00     0.013 C 
ATOM     15  C14 <0> d          51.111  47.953  42.775  0.00  0.00    -0.009 C 
ATOM     16  C15 <0> d          50.661  46.818  41.826  0.00  0.00     0.005 C 
ATOM     17  C16 <0> d          50.401  45.667  42.809  0.00  0.00     0.009 C 
ATOM     18  C17 <0> d          49.725  46.373  44.013  0.00  0.00     0.039 C 
ATOM     19  C18 <0> d          50.072  47.881  43.897  0.00  0.00     0.066 C 
ATOM     20  C22 <0> d          52.481  47.651  43.392  0.00  0.00     0.019 C 
ATOM     21  C19 <0> d          48.820  48.686  43.563  0.00  0.00     0.049 C 
ATOM     22  C20 <0> d          48.185  49.202  44.857  0.00  0.00     0.116 C 
ATOM     23  C21 <0> d          47.053  48.292  45.258  0.00  0.00     0.172 C 
ATOM     24  O2  <0> d          46.082  48.186  44.547  0.00  0.00    -0.648 OA
ATOM     25  O4  <0> d          47.124  47.600  46.405  0.00  0.00    -0.648 OA
ATOM     26  O3  <0> d          50.650  48.345  45.120  0.00  0.00    -0.389 OA
ATOM     27  H26 <0> d          51.270  49.078  45.007  0.00  0.00     0.210 HD
ENDMDL
MODEL 7
REMARK VINA RESULT:      -9.0      5.916      9.043
ATOM      1  C1  <0> d          44.537  49.883  44.948  0.00  0.00     0.021 C 
ATOM      2  C2  <0> d          44.230  51.237  44.312  0.00  0.00    -0.012 C 
ATOM      3  C3  <0> d          43.189  51.968  45.177  0.00  0.00     0.022 C 
ATOM      4  C4  <0> d          41.903  51.152  45.267  0.00  0.00     0.084 C 
ATOM      5  C5  <0> d          41.420  50.799  43.886  0.00  0.00     0.149 C 
ATOM      6  O1  <0> d          40.248  50.522  43.711  0.00  0.00    -0.293 OA
ATOM      7  C6  <0> d          42.302  50.792  42.797  0.00  0.00     0.058 C 
ATOM      8  C7  <0> d          43.631  51.011  42.946  0.00  0.00    -0.046 C 
ATOM      9  C8  <0> d          44.487  51.005  41.764  0.00  0.00     0.004 C 
ATOM     10  C9  <0> d          45.773  51.303  41.844  0.00  0.00    -0.021 C 
ATOM     11  C10 <0> d          46.450  51.718  43.118  0.00  0.00     0.018 C 
ATOM     12  C11 <0> d          45.473  52.112  44.211  0.00  0.00     0.006 C 
ATOM     13  C12 <0> d          46.119  52.337  45.569  0.00  0.00     0.007 C 
ATOM     14  C13 <0> d          47.199  51.327  45.960  0.00  0.00     0.013 C 
ATOM     15  C14 <0> d          48.184  51.165  44.827  0.00  0.00    -0.009 C 
ATOM     16  C15 <0> d          47.413  50.657  43.586  0.00  0.00     0.005 C 
ATOM     17  C16 <0> d          48.558  50.316  42.620  0.00  0.00     0.009 C 
ATOM     18  C17 <0> d          49.623  49.671  43.546  0.00  0.00     0.039 C 
ATOM     19  C18 <0> d          49.281  50.111  44.993  0.00  0.00     0.066 C 
ATOM     20  C22 <0> d          48.868  52.508  44.546  0.00  0.00     0.019 C 
ATOM     21  C19 <0> d          48.800  48.914  45.809  0.00  0.00     0.049 C 
ATOM     22  C20 <0> d          49.537  47.655  45.349  0.00  0.00     0.116 C 
ATOM     23  C21 <0> d          49.605  46.669  46.487  0.00  0.00     0.172 C 
ATOM     24  O2  <0> d          48.759  46.684  47.349  0.00  0.00    -0.648 OA
ATOM     25  O4  <0> d          50.604  45.777  46.542  0.00  0.00    -0.648 OA
ATOM     26  O3  <0> d          50.428  50.703  45.608  0.00  0.00    -0.389 OA
ATOM     27  H26 <0> d          50.870  51.365  45.060  0.00  0.00     0.210 HD
ENDMDL
MODEL 8
REMARK VINA RESULT:      -8.6      1.856      6.496
ATOM      1  C1  <0> d          51.341  48.591  39.142  0.00  0.00     0.021 C 
ATOM      2  C2  <0> d          50.451  49.200  38.059  0.00  0.00    -0.012 C 
ATOM      3  C3  <0> d          50.379  48.227  36.870  0.00  0.00     0.022 C 
ATOM      4  C4  <0> d          51.772  47.982  36.297  0.00  0.00     0.084 C 
ATOM      5  C5  <0> d          52.437  49.295  35.982  0.00  0.00     0.149 C 
ATOM      6  O1  <0> d          53.342  49.332  35.170  0.00  0.00    -0.293 OA
ATOM      7  C6  <0> d          52.021  50.479  36.607  0.00  0.00     0.058 C 
ATOM      8  C7  <0> d          51.076  50.485  37.578  0.00  0.00    -0.046 C 
ATOM      9  C8  <0> d          50.681  51.758  38.174  0.00  0.00     0.004 C 
ATOM     10  C9  <0> d          49.701  51.829  39.059  0.00  0.00    -0.021 C 
ATOM     11  C10 <0> d          48.883  50.645  39.487  0.00  0.00     0.018 C 
ATOM     12  C11 <0> d          49.035  49.450  38.562  0.00  0.00     0.006 C 
ATOM     13  C12 <0> d          48.385  48.178  39.082  0.00  0.00     0.007 C 
ATOM     14  C13 <0> d          48.571  47.905  40.575  0.00  0.00     0.013 C 
ATOM     15  C14 <0> d          48.228  49.142  41.370  0.00  0.00    -0.009 C 
ATOM     16  C15 <0> d          49.172  50.282  40.921  0.00  0.00     0.005 C 
ATOM     17  C16 <0> d          48.873  51.370  41.963  0.00  0.00     0.009 C 
ATOM     18  C17 <0> d          48.729  50.568  43.283  0.00  0.00     0.039 C 
ATOM     19  C18 <0> d          48.457  49.094  42.882  0.00  0.00     0.066 C 
ATOM     20  C22 <0> d          46.759  49.511  41.134  0.00  0.00     0.019 C 
ATOM     21  C19 <0> d          49.651  48.219  43.248  0.00  0.00     0.049 C 
ATOM     22  C20 <0> d          49.188  47.078  44.156  0.00  0.00     0.116 C 
ATOM     23  C21 <0> d          49.430  45.759  43.469  0.00  0.00     0.172 C 
ATOM     24  O2  <0> d          48.511  44.998  43.282  0.00  0.00    -0.648 OA
ATOM     25  O4  <0> d          50.666  45.431  43.065  0.00  0.00    -0.648 OA
ATOM     26  O3  <0> d          47.275  48.620  43.533  0.00  0.00    -0.389 OA
ATOM     27  H26 <0> d          47.357  48.550  44.494  0.00  0.00     0.210 HD
ENDMDL
MODEL 9
REMARK VINA RESULT:      -8.4      7.098      9.511
ATOM      1  C1  <0> d          45.369  48.720  43.918  0.00  0.00     0.021 C 
ATOM      2  C2  <0> d          45.241  49.955  44.807  0.00  0.00    -0.012 C 
ATOM      3  C3  <0> d          43.800  50.040  45.335  0.00  0.00     0.022 C 
ATOM      4  C4  <0> d          42.812  50.150  44.176  0.00  0.00     0.084 C 
ATOM      5  C5  <0> d          43.206  51.286  43.271  0.00  0.00     0.149 C 
ATOM      6  O1  <0> d          42.371  51.797  42.549  0.00  0.00    -0.293 OA
ATOM      7  C6  <0> d          44.522  51.768  43.256  0.00  0.00     0.058 C 
ATOM      8  C7  <0> d          45.511  51.185  43.976  0.00  0.00    -0.046 C 
ATOM      9  C8  <0> d          46.855  51.751  43.923  0.00  0.00     0.004 C 
ATOM     10  C9  <0> d          47.832  51.277  44.677  0.00  0.00    -0.021 C 
ATOM     11  C10 <0> d          47.647  50.170  45.675  0.00  0.00     0.018 C 
ATOM     12  C11 <0> d          46.189  49.898  45.999  0.00  0.00     0.006 C 
ATOM     13  C12 <0> d          45.963  48.653  46.842  0.00  0.00     0.007 C 
ATOM     14  C13 <0> d          46.809  47.438  46.464  0.00  0.00     0.013 C 
ATOM     15  C14 <0> d          48.258  47.841  46.335  0.00  0.00    -0.009 C 
ATOM     16  C15 <0> d          48.363  48.920  45.232  0.00  0.00     0.005 C 
ATOM     17  C16 <0> d          49.884  49.044  45.054  0.00  0.00     0.009 C 
ATOM     18  C17 <0> d          50.374  47.576  45.153  0.00  0.00     0.039 C 
ATOM     19  C18 <0> d          49.246  46.776  45.855  0.00  0.00     0.066 C 
ATOM     20  C22 <0> d          48.765  48.371  47.681  0.00  0.00     0.019 C 
ATOM     21  C19 <0> d          48.600  45.803  44.873  0.00  0.00     0.049 C 
ATOM     22  C20 <0> d          48.525  44.413  45.507  0.00  0.00     0.116 C 
ATOM     23  C21 <0> d          47.185  43.794  45.202  0.00  0.00     0.172 C 
ATOM     24  O2  <0> d          46.269  43.924  45.978  0.00  0.00    -0.648 OA
ATOM     25  O4  <0> d          47.011  43.099  44.069  0.00  0.00    -0.648 OA
ATOM     26  O3  <0> d          49.776  46.069  46.979  0.00  0.00    -0.389 OA
ATOM     27  H26 <0> d          49.191  45.379  47.321  0.00  0.00     0.210 HD
ENDMDL
MODEL 10
REMARK VINA RESULT:      -8.4      5.578      8.482
ATOM      1  C1  <0> d          45.586  49.307  43.769  0.00  0.00     0.021 C 
ATOM      2  C2  <0> d          45.252  49.836  45.163  0.00  0.00    -0.012 C 
ATOM      3  C3  <0> d          43.815  49.421  45.521  0.00  0.00     0.022 C 
ATOM      4  C4  <0> d          42.826  50.000  44.513  0.00  0.00     0.084 C 
ATOM      5  C5  <0> d          43.028  51.487  44.390  0.00  0.00     0.149 C 
ATOM      6  O1  <0> d          42.121  52.184  43.978  0.00  0.00    -0.293 OA
ATOM      7  C6  <0> d          44.245  52.078  44.754  0.00  0.00     0.058 C 
ATOM      8  C7  <0> d          45.315  51.342  45.142  0.00  0.00    -0.046 C 
ATOM      9  C8  <0> d          46.547  52.028  45.521  0.00  0.00     0.004 C 
ATOM     10  C9  <0> d          47.588  51.363  45.992  0.00  0.00    -0.021 C 
ATOM     11  C10 <0> d          47.586  49.880  46.228  0.00  0.00     0.018 C 
ATOM     12  C11 <0> d          46.193  49.277  46.222  0.00  0.00     0.006 C 
ATOM     13  C12 <0> d          46.176  47.757  46.251  0.00  0.00     0.007 C 
ATOM     14  C13 <0> d          47.213  47.069  45.363  0.00  0.00     0.013 C 
ATOM     15  C14 <0> d          48.575  47.675  45.602  0.00  0.00    -0.009 C 
ATOM     16  C15 <0> d          48.502  49.180  45.256  0.00  0.00     0.005 C 
ATOM     17  C16 <0> d          49.981  49.590  45.311  0.00  0.00     0.009 C 
ATOM     18  C17 <0> d          50.708  48.386  44.659  0.00  0.00     0.039 C 
ATOM     19  C18 <0> d          49.728  47.186  44.721  0.00  0.00     0.066 C 
ATOM     20  C22 <0> d          48.984  47.459  47.063  0.00  0.00     0.019 C 
ATOM     21  C19 <0> d          49.255  46.817  43.319  0.00  0.00     0.049 C 
ATOM     22  C20 <0> d          50.359  47.134  42.308  0.00  0.00     0.116 C 
ATOM     23  C21 <0> d          51.113  45.872  41.977  0.00  0.00     0.172 C 
ATOM     24  O2  <0> d          50.962  45.343  40.901  0.00  0.00    -0.648 OA
ATOM     25  O4  <0> d          51.951  45.337  42.876  0.00  0.00    -0.648 OA
ATOM     26  O3  <0> d          50.365  46.065  45.341  0.00  0.00    -0.389 OA
ATOM     27  H26 <0> d          51.330  46.123  45.361  0.00  0.00     0.210 HD
ENDMDL
