MODEL 1
REMARK VINA RESULT:      -9.6      0.000      0.000
ATOM      1  C1  <0> d          52.107  49.415  40.622  0.00  0.00     0.019 A 
ATOM      2  C2  <0> d          52.224  48.516  41.657  0.00  0.00     0.030 A 
ATOM      3  C3  <0> d          52.132  47.151  41.408  0.00  0.00     0.028 A 
ATOM      4  C4  <0> d          51.921  46.689  40.111  0.00  0.00     0.030 A 
ATOM      5  C5  <0> d          51.803  47.582  39.072  0.00  0.00     0.019 A 
ATOM      6  C6  <0> d          51.895  48.955  39.319  0.00  0.00     0.032 A 
ATOM      7  N2  <0> d          52.250  46.244  42.456  0.00  0.00    -0.384 N 
ATOM      8  H12 <0> d          52.405  45.306  42.270  0.00  0.00     0.160 HD
ATOM      9  C13 <0> d          52.139  46.708  43.841  0.00  0.00     0.180 C 
ATOM     10  C14 <0> d          50.694  46.676  44.268  0.00  0.00     0.070 A 
ATOM     11  N4  <0> d          50.327  47.276  45.382  0.00  0.00    -0.241 NA
ATOM     12  C17 <0> d          49.054  47.251  45.753  0.00  0.00     0.174 A 
ATOM     13  C16 <0> d          48.098  46.573  44.961  0.00  0.00     0.202 A 
ATOM     14  C18 <0> d          48.591  47.909  46.986  0.00  0.00     0.292 A 
ATOM     15  N3  <0> d          48.488  45.968  43.839  0.00  0.00    -0.237 NA
ATOM     16  N6  <0> d          46.811  46.556  45.358  0.00  0.00    -0.043 NA
ATOM     17  C15 <0> d          49.757  46.010  43.484  0.00  0.00     0.147 A 
ATOM     18  C19 <0> d          46.422  47.150  46.459  0.00  0.00     0.703 A 
ATOM     19  N5  <0> d          47.274  47.825  47.284  0.00  0.00    -0.152 N 
ATOM     20  H2  <0> d          46.923  48.260  48.112  0.00  0.00     0.187 HD
ATOM     21  O4  <0> d          49.364  48.509  47.710  0.00  0.00    -0.265 OA
ATOM     22  N7  <0> d          45.095  47.090  46.799  0.00  0.00    -0.233 N 
ATOM     23  H16 <0> d          44.452  46.719  46.175  0.00  0.00     0.174 HD
ATOM     24  H17 <0> d          44.801  47.418  47.661  0.00  0.00     0.174 HD
ATOM     25  C7  <0> d          51.776  49.916  38.205  0.00  0.00     0.252 C 
ATOM     26  O1  <0> d          52.344  49.699  37.152  0.00  0.00    -0.268 OA
ATOM     27  N1  <0> d          51.040  51.036  38.357  0.00  0.00    -0.342 N 
ATOM     28  H7  <0> d          50.588  51.208  39.198  0.00  0.00     0.163 HD
ATOM     29  C8  <0> d          50.923  51.989  37.252  0.00  0.00     0.186 C 
ATOM     30  C9  <0> d          51.117  53.412  37.783  0.00  0.00     0.046 C 
ATOM     31  C10 <0> d          52.461  53.958  37.297  0.00  0.00     0.116 C 
ATOM     32  C11 <0> d          53.441  53.968  38.443  0.00  0.00     0.172 C 
ATOM     33  O2  <0> d          54.186  54.907  38.593  0.00  0.00    -0.648 OA
ATOM     34  O5  <0> d          53.487  52.931  39.295  0.00  0.00    -0.648 OA
ATOM     35  C12 <0> d          49.555  51.870  36.627  0.00  0.00     0.196 C 
ATOM     36  O3  <0> d          48.986  52.856  36.227  0.00  0.00    -0.646 OA
ATOM     37  O6  <0> d          48.972  50.665  36.517  0.00  0.00    -0.646 OA
ENDMDL
MODEL 2
REMARK VINA RESULT:      -9.6      1.580      2.798
ATOM      1  C1  <0> d          51.670  48.157  39.461  0.00  0.00     0.019 A 
ATOM      2  C2  <0> d          52.236  47.624  40.595  0.00  0.00     0.030 A 
ATOM      3  C3  <0> d          52.008  48.216  41.833  0.00  0.00     0.028 A 
ATOM      4  C4  <0> d          51.206  49.350  41.929  0.00  0.00     0.030 A 
ATOM      5  C5  <0> d          50.636  49.889  40.798  0.00  0.00     0.019 A 
ATOM      6  C6  <0> d          50.864  49.296  39.552  0.00  0.00     0.032 A 
ATOM      7  N2  <0> d          52.582  47.674  42.978  0.00  0.00    -0.384 N 
ATOM      8  H12 <0> d          53.219  48.194  43.493  0.00  0.00     0.160 HD
ATOM      9  C13 <0> d          52.227  46.319  43.405  0.00  0.00     0.180 C 
ATOM     10  C14 <0> d          50.797  46.301  43.881  0.00  0.00     0.070 A 
ATOM     11  N4  <0> d          50.491  46.819  45.053  0.00  0.00    -0.241 NA
ATOM     12  C17 <0> d          49.231  46.807  45.467  0.00  0.00     0.174 A 
ATOM     13  C16 <0> d          48.224  46.229  44.659  0.00  0.00     0.202 A 
ATOM     14  C18 <0> d          48.835  47.377  46.766  0.00  0.00     0.292 A 
ATOM     15  N3  <0> d          48.553  45.705  43.479  0.00  0.00    -0.237 NA
ATOM     16  N6  <0> d          46.952  46.223  45.100  0.00  0.00    -0.043 NA
ATOM     17  C15 <0> d          49.811  45.733  43.081  0.00  0.00     0.147 A 
ATOM     18  C19 <0> d          46.622  46.738  46.260  0.00  0.00     0.703 A 
ATOM     19  N5  <0> d          47.526  47.313  47.104  0.00  0.00    -0.152 N 
ATOM     20  H2  <0> d          47.220  47.691  47.977  0.00  0.00     0.187 HD
ATOM     21  O4  <0> d          49.654  47.889  47.507  0.00  0.00    -0.265 OA
ATOM     22  N7  <0> d          45.306  46.694  46.642  0.00  0.00    -0.233 N 
ATOM     23  H16 <0> d          44.873  45.840  46.790  0.00  0.00     0.174 HD
ATOM     24  H17 <0> d          44.810  47.517  46.763  0.00  0.00     0.174 HD
ATOM     25  C7  <0> d          50.249  49.867  38.338  0.00  0.00     0.252 C 
ATOM     26  O1  <0> d          49.146  49.496  37.984  0.00  0.00    -0.268 OA
ATOM     27  N1  <0> d          50.910  50.798  37.622  0.00  0.00    -0.342 N 
ATOM     28  H7  <0> d          51.790  51.093  37.906  0.00  0.00     0.163 HD
ATOM     29  C8  <0> d          50.300  51.364  36.418  0.00  0.00     0.186 C 
ATOM     30  C9  <0> d          51.254  51.192  35.233  0.00  0.00     0.046 C 
ATOM     31  C10 <0> d          50.822  49.982  34.402  0.00  0.00     0.116 C 
ATOM     32  C11 <0> d          51.215  48.715  35.120  0.00  0.00     0.172 C 
ATOM     33  O2  <0> d          52.307  48.621  35.626  0.00  0.00    -0.648 OA
ATOM     34  O5  <0> d          50.349  47.691  35.195  0.00  0.00    -0.648 OA
ATOM     35  C12 <0> d          50.028  52.831  36.633  0.00  0.00     0.196 C 
ATOM     36  O3  <0> d          50.943  53.591  36.842  0.00  0.00    -0.646 OA
ATOM     37  O6  <0> d          48.768  53.292  36.593  0.00  0.00    -0.646 OA
ENDMDL
MODEL 3
REMARK VINA RESULT:      -9.6      1.677      2.105
ATOM      1  C1  <0> d          51.936  48.631  39.591  0.00  0.00     0.019 A 
ATOM      2  C2  <0> d          51.719  47.675  40.555  0.00  0.00     0.030 A 
ATOM      3  C3  <0> d          51.278  46.406  40.194  0.00  0.00     0.028 A 
ATOM      4  C4  <0> d          51.054  46.099  38.854  0.00  0.00     0.030 A 
ATOM      5  C5  <0> d          51.267  47.051  37.884  0.00  0.00     0.019 A 
ATOM      6  C6  <0> d          51.711  48.327  38.244  0.00  0.00     0.032 A 
ATOM      7  N2  <0> d          51.061  45.441  41.172  0.00  0.00    -0.384 N 
ATOM      8  H12 <0> d          50.620  44.609  40.941  0.00  0.00     0.160 HD
ATOM      9  C13 <0> d          51.496  45.684  42.549  0.00  0.00     0.180 C 
ATOM     10  C14 <0> d          50.310  46.082  43.389  0.00  0.00     0.070 A 
ATOM     11  N4  <0> d          49.474  45.160  43.819  0.00  0.00    -0.241 NA
ATOM     12  C17 <0> d          48.434  45.512  44.563  0.00  0.00     0.174 A 
ATOM     13  C16 <0> d          48.218  46.873  44.881  0.00  0.00     0.202 A 
ATOM     14  C18 <0> d          47.472  44.520  45.073  0.00  0.00     0.292 A 
ATOM     15  N3  <0> d          49.072  47.793  44.432  0.00  0.00    -0.237 NA
ATOM     16  N6  <0> d          47.153  47.210  45.634  0.00  0.00    -0.043 NA
ATOM     17  C15 <0> d          50.104  47.422  43.700  0.00  0.00     0.147 A 
ATOM     18  C19 <0> d          46.311  46.310  46.078  0.00  0.00     0.703 A 
ATOM     19  N5  <0> d          46.439  44.976  45.819  0.00  0.00    -0.152 N 
ATOM     20  H2  <0> d          45.768  44.333  46.184  0.00  0.00     0.187 HD
ATOM     21  O4  <0> d          47.603  43.333  44.834  0.00  0.00    -0.265 OA
ATOM     22  N7  <0> d          45.249  46.728  46.838  0.00  0.00    -0.233 N 
ATOM     23  H16 <0> d          45.189  47.654  47.117  0.00  0.00     0.174 HD
ATOM     24  H17 <0> d          44.561  46.097  47.096  0.00  0.00     0.174 HD
ATOM     25  C7  <0> d          51.948  49.348  37.206  0.00  0.00     0.252 C 
ATOM     26  O1  <0> d          52.600  49.070  36.218  0.00  0.00    -0.268 OA
ATOM     27  N1  <0> d          51.443  50.589  37.354  0.00  0.00    -0.342 N 
ATOM     28  H7  <0> d          50.923  50.810  38.143  0.00  0.00     0.163 HD
ATOM     29  C8  <0> d          51.679  51.603  36.323  0.00  0.00     0.186 C 
ATOM     30  C9  <0> d          51.872  52.969  36.985  0.00  0.00     0.046 C 
ATOM     31  C10 <0> d          52.220  52.776  38.462  0.00  0.00     0.116 C 
ATOM     32  C11 <0> d          53.530  53.460  38.762  0.00  0.00     0.172 C 
ATOM     33  O2  <0> d          54.342  52.923  39.477  0.00  0.00    -0.648 OA
ATOM     34  O5  <0> d          53.792  54.667  38.236  0.00  0.00    -0.648 OA
ATOM     35  C12 <0> d          50.493  51.659  35.393  0.00  0.00     0.196 C 
ATOM     36  O3  <0> d          50.485  50.994  34.385  0.00  0.00    -0.646 OA
ATOM     37  O6  <0> d          49.449  52.450  35.686  0.00  0.00    -0.646 OA
ENDMDL
MODEL 4
REMARK VINA RESULT:      -9.5      2.149      2.760
ATOM      1  C1  <0> d          51.844  48.941  40.438  0.00  0.00     0.019 A 
ATOM      2  C2  <0> d          52.311  48.249  41.531  0.00  0.00     0.030 A 
ATOM      3  C3  <0> d          51.985  46.907  41.699  0.00  0.00     0.028 A 
ATOM      4  C4  <0> d          51.185  46.260  40.761  0.00  0.00     0.030 A 
ATOM      5  C5  <0> d          50.713  46.946  39.666  0.00  0.00     0.019 A 
ATOM      6  C6  <0> d          51.039  48.295  39.495  0.00  0.00     0.032 A 
ATOM      7  N2  <0> d          52.460  46.210  42.805  0.00  0.00    -0.384 N 
ATOM      8  H12 <0> d          52.764  45.295  42.707  0.00  0.00     0.160 HD
ATOM      9  C13 <0> d          52.499  46.859  44.117  0.00  0.00     0.180 C 
ATOM     10  C14 <0> d          51.095  47.041  44.631  0.00  0.00     0.070 A 
ATOM     11  N4  <0> d          50.347  45.985  44.881  0.00  0.00    -0.241 NA
ATOM     12  C17 <0> d          49.113  46.147  45.339  0.00  0.00     0.174 A 
ATOM     13  C16 <0> d          48.598  47.448  45.544  0.00  0.00     0.202 A 
ATOM     14  C18 <0> d          48.239  45.001  45.639  0.00  0.00     0.292 A 
ATOM     15  N3  <0> d          49.366  48.505  45.280  0.00  0.00    -0.237 NA
ATOM     16  N6  <0> d          47.341  47.591  46.004  0.00  0.00    -0.043 NA
ATOM     17  C15 <0> d          50.593  48.323  44.832  0.00  0.00     0.147 A 
ATOM     18  C19 <0> d          46.581  46.555  46.266  0.00  0.00     0.703 A 
ATOM     19  N5  <0> d          46.993  45.266  46.096  0.00  0.00    -0.152 N 
ATOM     20  H2  <0> d          46.373  44.514  46.312  0.00  0.00     0.187 HD
ATOM     21  O4  <0> d          48.623  43.856  45.484  0.00  0.00    -0.265 OA
ATOM     22  N7  <0> d          45.311  46.779  46.732  0.00  0.00    -0.233 N 
ATOM     23  H16 <0> d          44.567  46.272  46.372  0.00  0.00     0.174 HD
ATOM     24  H17 <0> d          45.158  47.444  47.419  0.00  0.00     0.174 HD
ATOM     25  C7  <0> d          50.541  49.033  38.318  0.00  0.00     0.252 C 
ATOM     26  O1  <0> d          50.022  48.430  37.398  0.00  0.00    -0.268 OA
ATOM     27  N1  <0> d          50.663  50.374  38.262  0.00  0.00    -0.342 N 
ATOM     28  H7  <0> d          51.077  50.854  38.996  0.00  0.00     0.163 HD
ATOM     29  C8  <0> d          50.169  51.105  37.094  0.00  0.00     0.186 C 
ATOM     30  C9  <0> d          51.354  51.656  36.297  0.00  0.00     0.046 C 
ATOM     31  C10 <0> d          51.321  51.090  34.877  0.00  0.00     0.116 C 
ATOM     32  C11 <0> d          51.922  49.708  34.874  0.00  0.00     0.172 C 
ATOM     33  O2  <0> d          52.921  49.482  35.514  0.00  0.00    -0.648 OA
ATOM     34  O5  <0> d          51.348  48.728  34.157  0.00  0.00    -0.648 OA
ATOM     35  C12 <0> d          49.295  52.248  37.548  0.00  0.00     0.196 C 
ATOM     36  O3  <0> d          48.936  52.313  38.699  0.00  0.00    -0.646 OA
ATOM     37  O6  <0> d          48.917  53.191  36.671  0.00  0.00    -0.646 OA
ENDMDL
MODEL 5
REMARK VINA RESULT:      -9.4      1.728      2.447
ATOM      1  C1  <0> d          52.149  48.862  41.032  0.00  0.00     0.019 A 
ATOM      2  C2  <0> d          52.273  48.120  42.183  0.00  0.00     0.030 A 
ATOM      3  C3  <0> d          52.107  46.739  42.144  0.00  0.00     0.028 A 
ATOM      4  C4  <0> d          51.813  46.104  40.940  0.00  0.00     0.030 A 
ATOM      5  C5  <0> d          51.686  46.841  39.785  0.00  0.00     0.019 A 
ATOM      6  C6  <0> d          51.853  48.228  39.821  0.00  0.00     0.032 A 
ATOM      7  N2  <0> d          52.234  45.991  43.309  0.00  0.00    -0.384 N 
ATOM      8  H12 <0> d          52.453  45.048  43.258  0.00  0.00     0.160 HD
ATOM      9  C13 <0> d          52.036  46.628  44.613  0.00  0.00     0.180 C 
ATOM     10  C14 <0> d          50.564  46.681  44.929  0.00  0.00     0.070 A 
ATOM     11  N4  <0> d          50.132  47.445  45.912  0.00  0.00    -0.241 NA
ATOM     12  C17 <0> d          48.835  47.494  46.184  0.00  0.00     0.174 A 
ATOM     13  C16 <0> d          47.922  46.720  45.430  0.00  0.00     0.202 A 
ATOM     14  C18 <0> d          48.301  48.335  47.269  0.00  0.00     0.292 A 
ATOM     15  N3  <0> d          48.377  45.949  44.443  0.00  0.00    -0.237 NA
ATOM     16  N6  <0> d          46.610  46.782  45.727  0.00  0.00    -0.043 NA
ATOM     17  C15 <0> d          49.670  45.919  44.183  0.00  0.00     0.147 A 
ATOM     18  C19 <0> d          46.157  47.538  46.696  0.00  0.00     0.703 A 
ATOM     19  N5  <0> d          46.963  48.315  47.475  0.00  0.00    -0.152 N 
ATOM     20  H2  <0> d          46.564  48.873  48.201  0.00  0.00     0.187 HD
ATOM     21  O4  <0> d          49.035  49.024  47.954  0.00  0.00    -0.265 OA
ATOM     22  N7  <0> d          44.807  47.548  46.939  0.00  0.00    -0.233 N 
ATOM     23  H16 <0> d          44.237  48.181  46.477  0.00  0.00     0.174 HD
ATOM     24  H17 <0> d          44.425  46.923  47.574  0.00  0.00     0.174 HD
ATOM     25  C7  <0> d          51.725  49.021  38.583  0.00  0.00     0.252 C 
ATOM     26  O1  <0> d          52.442  49.986  38.402  0.00  0.00    -0.268 OA
ATOM     27  N1  <0> d          50.810  48.677  37.654  0.00  0.00    -0.342 N 
ATOM     28  H7  <0> d          50.238  47.907  37.800  0.00  0.00     0.163 HD
ATOM     29  C8  <0> d          50.683  49.464  36.426  0.00  0.00     0.186 C 
ATOM     30  C9  <0> d          49.321  50.162  36.406  0.00  0.00     0.046 C 
ATOM     31  C10 <0> d          49.320  51.308  37.419  0.00  0.00     0.116 C 
ATOM     32  C11 <0> d          49.605  52.606  36.707  0.00  0.00     0.172 C 
ATOM     33  O2  <0> d          48.754  53.461  36.645  0.00  0.00    -0.648 OA
ATOM     34  O5  <0> d          50.805  52.811  36.141  0.00  0.00    -0.648 OA
ATOM     35  C12 <0> d          50.797  48.552  35.230  0.00  0.00     0.196 C 
ATOM     36  O3  <0> d          50.227  47.487  35.225  0.00  0.00    -0.646 OA
ATOM     37  O6  <0> d          51.533  48.926  34.171  0.00  0.00    -0.646 OA
ENDMDL
MODEL 6
REMARK VINA RESULT:      -9.4      1.994      2.789
ATOM      1  C1  <0> d          52.235  48.670  40.988  0.00  0.00     0.019 A 
ATOM      2  C2  <0> d          52.330  47.898  42.122  0.00  0.00     0.030 A 
ATOM      3  C3  <0> d          51.957  46.558  42.088  0.00  0.00     0.028 A 
ATOM      4  C4  <0> d          51.485  45.994  40.906  0.00  0.00     0.030 A 
ATOM      5  C5  <0> d          51.386  46.760  39.767  0.00  0.00     0.019 A 
ATOM      6  C6  <0> d          51.761  48.107  39.799  0.00  0.00     0.032 A 
ATOM      7  N2  <0> d          52.054  45.781  43.237  0.00  0.00    -0.384 N 
ATOM      8  H12 <0> d          52.075  44.814  43.167  0.00  0.00     0.160 HD
ATOM      9  C13 <0> d          52.123  46.423  44.552  0.00  0.00     0.180 C 
ATOM     10  C14 <0> d          50.733  46.775  45.013  0.00  0.00     0.070 A 
ATOM     11  N4  <0> d          49.839  45.822  45.185  0.00  0.00    -0.241 NA
ATOM     12  C17 <0> d          48.617  46.134  45.596  0.00  0.00     0.174 A 
ATOM     13  C16 <0> d          48.274  47.484  45.838  0.00  0.00     0.202 A 
ATOM     14  C18 <0> d          47.584  45.107  45.808  0.00  0.00     0.292 A 
ATOM     15  N3  <0> d          49.189  48.436  45.654  0.00  0.00    -0.237 NA
ATOM     16  N6  <0> d          47.026  47.779  46.251  0.00  0.00    -0.043 NA
ATOM     17  C15 <0> d          50.400  48.105  45.251  0.00  0.00     0.147 A 
ATOM     18  C19 <0> d          46.122  46.848  46.433  0.00  0.00     0.703 A 
ATOM     19  N5  <0> d          46.364  45.523  46.224  0.00  0.00    -0.152 N 
ATOM     20  H2  <0> d          45.638  44.854  46.379  0.00  0.00     0.187 HD
ATOM     21  O4  <0> d          47.817  43.927  45.618  0.00  0.00    -0.265 OA
ATOM     22  N7  <0> d          44.873  47.226  46.855  0.00  0.00    -0.233 N 
ATOM     23  H16 <0> d          44.119  47.164  46.249  0.00  0.00     0.174 HD
ATOM     24  H17 <0> d          44.745  47.554  47.757  0.00  0.00     0.174 HD
ATOM     25  C7  <0> d          51.664  48.930  38.578  0.00  0.00     0.252 C 
ATOM     26  O1  <0> d          52.330  49.942  38.472  0.00  0.00    -0.268 OA
ATOM     27  N1  <0> d          50.835  48.561  37.581  0.00  0.00    -0.342 N 
ATOM     28  H7  <0> d          50.303  47.754  37.666  0.00  0.00     0.163 HD
ATOM     29  C8  <0> d          50.738  49.379  36.370  0.00  0.00     0.186 C 
ATOM     30  C9  <0> d          49.409  50.138  36.371  0.00  0.00     0.046 C 
ATOM     31  C10 <0> d          49.639  51.567  36.865  0.00  0.00     0.116 C 
ATOM     32  C11 <0> d          50.718  52.217  36.036  0.00  0.00     0.172 C 
ATOM     33  O2  <0> d          50.629  52.230  34.832  0.00  0.00    -0.648 OA
ATOM     34  O5  <0> d          51.779  52.778  36.639  0.00  0.00    -0.648 OA
ATOM     35  C12 <0> d          50.806  48.488  35.155  0.00  0.00     0.196 C 
ATOM     36  O3  <0> d          50.211  47.437  35.142  0.00  0.00    -0.646 OA
ATOM     37  O6  <0> d          51.529  48.864  34.088  0.00  0.00    -0.646 OA
ENDMDL
MODEL 7
REMARK VINA RESULT:      -9.1      2.570      3.738
ATOM      1  C1  <0> d          50.664  49.522  41.337  0.00  0.00     0.019 A 
ATOM      2  C2  <0> d          51.177  49.177  42.565  0.00  0.00     0.030 A 
ATOM      3  C3  <0> d          52.086  48.130  42.673  0.00  0.00     0.028 A 
ATOM      4  C4  <0> d          52.481  47.427  41.538  0.00  0.00     0.030 A 
ATOM      5  C5  <0> d          51.972  47.766  40.306  0.00  0.00     0.019 A 
ATOM      6  C6  <0> d          51.058  48.818  40.194  0.00  0.00     0.032 A 
ATOM      7  N2  <0> d          52.603  47.784  43.918  0.00  0.00    -0.384 N 
ATOM      8  H12 <0> d          53.255  48.359  44.348  0.00  0.00     0.160 HD
ATOM      9  C13 <0> d          52.161  46.553  44.577  0.00  0.00     0.180 C 
ATOM     10  C14 <0> d          50.680  46.627  44.841  0.00  0.00     0.070 A 
ATOM     11  N4  <0> d          50.235  47.290  45.889  0.00  0.00    -0.241 NA
ATOM     12  C17 <0> d          48.930  47.358  46.117  0.00  0.00     0.174 A 
ATOM     13  C16 <0> d          48.023  46.713  45.245  0.00  0.00     0.202 A 
ATOM     14  C18 <0> d          48.381  48.090  47.271  0.00  0.00     0.292 A 
ATOM     15  N3  <0> d          48.492  46.043  44.192  0.00  0.00    -0.237 NA
ATOM     16  N6  <0> d          46.702  46.791  45.497  0.00  0.00    -0.043 NA
ATOM     17  C15 <0> d          49.792  45.992  43.979  0.00  0.00     0.147 A 
ATOM     18  C19 <0> d          46.235  47.449  46.530  0.00  0.00     0.703 A 
ATOM     19  N5  <0> d          47.036  48.099  47.423  0.00  0.00    -0.152 N 
ATOM     20  H2  <0> d          46.626  48.586  48.194  0.00  0.00     0.187 HD
ATOM     21  O4  <0> d          49.108  48.666  48.058  0.00  0.00    -0.265 OA
ATOM     22  N7  <0> d          44.878  47.484  46.722  0.00  0.00    -0.233 N 
ATOM     23  H16 <0> d          44.462  46.868  47.344  0.00  0.00     0.174 HD
ATOM     24  H17 <0> d          44.337  48.124  46.236  0.00  0.00     0.174 HD
ATOM     25  C7  <0> d          50.515  49.189  38.873  0.00  0.00     0.252 C 
ATOM     26  O1  <0> d          49.668  50.057  38.786  0.00  0.00    -0.268 OA
ATOM     27  N1  <0> d          50.956  48.563  37.764  0.00  0.00    -0.342 N 
ATOM     28  H7  <0> d          51.632  47.870  37.834  0.00  0.00     0.163 HD
ATOM     29  C8  <0> d          50.417  48.931  36.453  0.00  0.00     0.186 C 
ATOM     30  C9  <0> d          49.606  47.762  35.888  0.00  0.00     0.046 C 
ATOM     31  C10 <0> d          50.215  46.442  36.363  0.00  0.00     0.116 C 
ATOM     32  C11 <0> d          49.635  46.078  37.707  0.00  0.00     0.172 C 
ATOM     33  O2  <0> d          48.501  46.390  37.980  0.00  0.00    -0.648 OA
ATOM     34  O5  <0> d          50.382  45.409  38.600  0.00  0.00    -0.648 OA
ATOM     35  C12 <0> d          51.552  49.254  35.514  0.00  0.00     0.196 C 
ATOM     36  O3  <0> d          51.357  49.950  34.547  0.00  0.00    -0.646 OA
ATOM     37  O6  <0> d          52.780  48.766  35.755  0.00  0.00    -0.646 OA
ENDMDL
MODEL 8
REMARK VINA RESULT:      -9.0      2.115      2.696
ATOM      1  C1  <0> d          51.837  48.566  39.255  0.00  0.00     0.019 A 
ATOM      2  C2  <0> d          51.548  47.682  40.268  0.00  0.00     0.030 A 
ATOM      3  C3  <0> d          51.166  46.378  39.969  0.00  0.00     0.028 A 
ATOM      4  C4  <0> d          51.075  45.963  38.643  0.00  0.00     0.030 A 
ATOM      5  C5  <0> d          51.363  46.843  37.624  0.00  0.00     0.019 A 
ATOM      6  C6  <0> d          51.747  48.154  37.922  0.00  0.00     0.032 A 
ATOM      7  N2  <0> d          50.874  45.487  40.996  0.00  0.00    -0.384 N 
ATOM      8  H12 <0> d          50.088  44.922  40.938  0.00  0.00     0.160 HD
ATOM      9  C13 <0> d          51.754  45.402  42.164  0.00  0.00     0.180 C 
ATOM     10  C14 <0> d          51.122  46.128  43.323  0.00  0.00     0.070 A 
ATOM     11  N4  <0> d          49.914  45.791  43.726  0.00  0.00    -0.241 NA
ATOM     12  C17 <0> d          49.362  46.428  44.751  0.00  0.00     0.174 A 
ATOM     13  C16 <0> d          50.063  47.472  45.397  0.00  0.00     0.202 A 
ATOM     14  C18 <0> d          48.017  46.086  45.244  0.00  0.00     0.292 A 
ATOM     15  N3  <0> d          51.282  47.804  44.972  0.00  0.00    -0.237 NA
ATOM     16  N6  <0> d          49.483  48.109  46.432  0.00  0.00    -0.043 NA
ATOM     17  C15 <0> d          51.817  47.154  43.956  0.00  0.00     0.147 A 
ATOM     18  C19 <0> d          48.285  47.788  46.855  0.00  0.00     0.703 A 
ATOM     19  N5  <0> d          47.536  46.796  46.291  0.00  0.00    -0.152 N 
ATOM     20  H2  <0> d          46.628  46.592  46.654  0.00  0.00     0.187 HD
ATOM     21  O4  <0> d          47.363  45.197  44.730  0.00  0.00    -0.265 OA
ATOM     22  N7  <0> d          47.758  48.481  47.914  0.00  0.00    -0.233 N 
ATOM     23  H16 <0> d          47.856  48.137  48.815  0.00  0.00     0.174 HD
ATOM     24  H17 <0> d          47.288  49.315  47.761  0.00  0.00     0.174 HD
ATOM     25  C7  <0> d          52.063  49.097  36.833  0.00  0.00     0.252 C 
ATOM     26  O1  <0> d          52.882  48.796  35.986  0.00  0.00    -0.268 OA
ATOM     27  N1  <0> d          51.444  50.294  36.777  0.00  0.00    -0.342 N 
ATOM     28  H7  <0> d          50.791  50.534  37.453  0.00  0.00     0.163 HD
ATOM     29  C8  <0> d          51.758  51.230  35.696  0.00  0.00     0.186 C 
ATOM     30  C9  <0> d          51.688  52.665  36.226  0.00  0.00     0.046 C 
ATOM     31  C10 <0> d          51.021  52.668  37.603  0.00  0.00     0.116 C 
ATOM     32  C11 <0> d          49.524  52.711  37.434  0.00  0.00     0.172 C 
ATOM     33  O2  <0> d          49.001  53.676  36.930  0.00  0.00    -0.648 OA
ATOM     34  O5  <0> d          48.772  51.678  37.846  0.00  0.00    -0.648 OA
ATOM     35  C12 <0> d          50.762  51.060  34.577  0.00  0.00     0.196 C 
ATOM     36  O3  <0> d          50.177  52.021  34.138  0.00  0.00    -0.646 OA
ATOM     37  O6  <0> d          50.526  49.839  34.071  0.00  0.00    -0.646 OA
ENDMDL
MODEL 9
REMARK VINA RESULT:      -8.9      6.762     11.239
ATOM      1  C1  <0> d          44.265  48.708  44.439  0.00  0.00     0.019 A 
ATOM      2  C2  <0> d          42.990  49.222  44.451  0.00  0.00     0.030 A 
ATOM      3  C3  <0> d          42.779  50.558  44.775  0.00  0.00     0.028 A 
ATOM      4  C4  <0> d          43.858  51.380  45.089  0.00  0.00     0.030 A 
ATOM      5  C5  <0> d          45.137  50.873  45.079  0.00  0.00     0.019 A 
ATOM      6  C6  <0> d          45.352  49.530  44.754  0.00  0.00     0.032 A 
ATOM      7  N2  <0> d          41.487  51.074  44.787  0.00  0.00    -0.384 N 
ATOM      8  H12 <0> d          40.936  50.982  45.579  0.00  0.00     0.160 HD
ATOM      9  C13 <0> d          40.962  51.757  43.602  0.00  0.00     0.180 C 
ATOM     10  C14 <0> d          39.759  51.011  43.085  0.00  0.00     0.070 A 
ATOM     11  N4  <0> d          39.923  49.890  42.413  0.00  0.00    -0.241 NA
ATOM     12  C17 <0> d          38.863  49.233  41.963  0.00  0.00     0.174 A 
ATOM     13  C16 <0> d          37.563  49.741  42.194  0.00  0.00     0.202 A 
ATOM     14  C18 <0> d          38.991  47.973  41.212  0.00  0.00     0.292 A 
ATOM     15  N3  <0> d          37.416  50.879  42.871  0.00  0.00    -0.237 NA
ATOM     16  N6  <0> d          36.500  49.060  41.725  0.00  0.00    -0.043 NA
ATOM     17  C15 <0> d          38.483  51.515  43.316  0.00  0.00     0.147 A 
ATOM     18  C19 <0> d          36.638  47.940  41.059  0.00  0.00     0.703 A 
ATOM     19  N5  <0> d          37.852  47.378  40.788  0.00  0.00    -0.152 N 
ATOM     20  H2  <0> d          37.900  46.521  40.277  0.00  0.00     0.187 HD
ATOM     21  O4  <0> d          40.082  47.484  40.980  0.00  0.00    -0.265 OA
ATOM     22  N7  <0> d          35.509  47.303  40.611  0.00  0.00    -0.233 N 
ATOM     23  H16 <0> d          35.159  47.501  39.730  0.00  0.00     0.174 HD
ATOM     24  H17 <0> d          35.062  46.656  41.178  0.00  0.00     0.174 HD
ATOM     25  C7  <0> d          46.723  48.984  44.735  0.00  0.00     0.252 C 
ATOM     26  O1  <0> d          47.564  49.477  44.009  0.00  0.00    -0.268 OA
ATOM     27  N1  <0> d          47.042  47.938  45.523  0.00  0.00    -0.342 N 
ATOM     28  H7  <0> d          46.370  47.544  46.102  0.00  0.00     0.163 HD
ATOM     29  C8  <0> d          48.402  47.396  45.504  0.00  0.00     0.186 C 
ATOM     30  C9  <0> d          48.348  45.890  45.233  0.00  0.00     0.046 C 
ATOM     31  C10 <0> d          46.977  45.347  45.639  0.00  0.00     0.116 C 
ATOM     32  C11 <0> d          46.881  43.892  45.256  0.00  0.00     0.172 C 
ATOM     33  O2  <0> d          47.782  43.135  45.529  0.00  0.00    -0.648 OA
ATOM     34  O5  <0> d          45.794  43.438  44.612  0.00  0.00    -0.648 OA
ATOM     35  C12 <0> d          49.060  47.642  46.839  0.00  0.00     0.196 C 
ATOM     36  O3  <0> d          49.093  48.758  47.299  0.00  0.00    -0.646 OA
ATOM     37  O6  <0> d          49.610  46.620  47.514  0.00  0.00    -0.646 OA
ENDMDL
MODEL 10
REMARK VINA RESULT:      -8.9      3.244      8.930
ATOM      1  C1  <0> d          50.862  45.840  39.770  0.00  0.00     0.019 A 
ATOM      2  C2  <0> d          51.050  46.106  38.433  0.00  0.00     0.030 A 
ATOM      3  C3  <0> d          51.759  47.237  38.040  0.00  0.00     0.028 A 
ATOM      4  C4  <0> d          52.280  48.103  38.997  0.00  0.00     0.030 A 
ATOM      5  C5  <0> d          52.095  47.845  40.335  0.00  0.00     0.019 A 
ATOM      6  C6  <0> d          51.383  46.709  40.734  0.00  0.00     0.032 A 
ATOM      7  N2  <0> d          51.947  47.502  36.688  0.00  0.00    -0.384 N 
ATOM      8  H12 <0> d          52.839  47.475  36.308  0.00  0.00     0.160 HD
ATOM      9  C13 <0> d          50.798  47.824  35.838  0.00  0.00     0.180 C 
ATOM     10  C14 <0> d          50.322  49.220  36.144  0.00  0.00     0.070 A 
ATOM     11  N4  <0> d          49.757  49.479  37.306  0.00  0.00    -0.241 NA
ATOM     12  C17 <0> d          49.343  50.710  37.575  0.00  0.00     0.174 A 
ATOM     13  C16 <0> d          49.497  51.736  36.613  0.00  0.00     0.202 A 
ATOM     14  C18 <0> d          48.710  51.053  38.859  0.00  0.00     0.292 A 
ATOM     15  N3  <0> d          50.066  51.454  35.441  0.00  0.00    -0.237 NA
ATOM     16  N6  <0> d          49.066  52.978  36.905  0.00  0.00    -0.043 NA
ATOM     17  C15 <0> d          50.477  50.226  35.195  0.00  0.00     0.147 A 
ATOM     18  C19 <0> d          48.506  53.261  38.056  0.00  0.00     0.703 A 
ATOM     19  N5  <0> d          48.316  52.335  39.040  0.00  0.00    -0.152 N 
ATOM     20  H2  <0> d          47.884  52.605  39.900  0.00  0.00     0.187 HD
ATOM     21  O4  <0> d          48.549  50.215  39.728  0.00  0.00    -0.265 OA
ATOM     22  N7  <0> d          48.091  54.548  38.281  0.00  0.00    -0.233 N 
ATOM     23  H16 <0> d          48.626  55.291  37.963  0.00  0.00     0.174 HD
ATOM     24  H17 <0> d          47.265  54.714  38.759  0.00  0.00     0.174 HD
ATOM     25  C7  <0> d          51.189  46.424  42.169  0.00  0.00     0.252 C 
ATOM     26  O1  <0> d          51.833  45.544  42.706  0.00  0.00    -0.268 OA
ATOM     27  N1  <0> d          50.296  47.138  42.882  0.00  0.00    -0.342 N 
ATOM     28  H7  <0> d          49.782  47.840  42.453  0.00  0.00     0.163 HD
ATOM     29  C8  <0> d          50.103  46.855  44.306  0.00  0.00     0.186 C 
ATOM     30  C9  <0> d          48.677  46.349  44.537  0.00  0.00     0.046 C 
ATOM     31  C10 <0> d          48.717  44.870  44.927  0.00  0.00     0.116 C 
ATOM     32  C11 <0> d          47.433  44.499  45.623  0.00  0.00     0.172 C 
ATOM     33  O2  <0> d          46.740  45.360  46.112  0.00  0.00    -0.648 OA
ATOM     34  O5  <0> d          47.059  43.212  45.701  0.00  0.00    -0.648 OA
ATOM     35  C12 <0> d          50.323  48.115  45.104  0.00  0.00     0.196 C 
ATOM     36  O3  <0> d          49.636  48.347  46.070  0.00  0.00    -0.646 OA
ATOM     37  O6  <0> d          51.284  48.979  44.741  0.00  0.00    -0.646 OA
ENDMDL
MODEL 1
REMARK VINA RESULT:      -9.7      0.000      0.000
ATOM      1  C1  <0> d          51.686  47.525  38.946  0.00  0.00     0.019 A 
ATOM      2  C2  <0> d          51.770  46.620  39.979  0.00  0.00     0.030 A 
ATOM      3  C3  <0> d          52.082  47.055  41.264  0.00  0.00     0.028 A 
ATOM      4  C4  <0> d          52.311  48.406  41.507  0.00  0.00     0.030 A 
ATOM      5  C5  <0> d          52.227  49.317  40.479  0.00  0.00     0.019 A 
ATOM      6  C6  <0> d          51.913  48.883  39.187  0.00  0.00     0.032 A 
ATOM      7  N2  <0> d          52.168  46.138  42.306  0.00  0.00    -0.384 N 
ATOM      8  H12 <0> d          52.277  45.194  42.113  0.00  0.00     0.160 HD
ATOM      9  C13 <0> d          52.092  46.598  43.695  0.00  0.00     0.180 C 
ATOM     10  C14 <0> d          50.660  46.558  44.159  0.00  0.00     0.070 A 
ATOM     11  N4  <0> d          50.313  47.181  45.267  0.00  0.00    -0.241 NA
ATOM     12  C17 <0> d          49.050  47.148  45.671  0.00  0.00     0.174 A 
ATOM     13  C16 <0> d          48.084  46.440  44.920  0.00  0.00     0.202 A 
ATOM     14  C18 <0> d          48.610  47.832  46.899  0.00  0.00     0.292 A 
ATOM     15  N3  <0> d          48.453  45.811  43.804  0.00  0.00    -0.237 NA
ATOM     16  N6  <0> d          46.808  46.416  45.351  0.00  0.00    -0.043 NA
ATOM     17  C15 <0> d          49.713  45.860  43.416  0.00  0.00     0.147 A 
ATOM     18  C19 <0> d          46.438  47.033  46.447  0.00  0.00     0.703 A 
ATOM     19  N5  <0> d          47.302  47.739  47.232  0.00  0.00    -0.152 N 
ATOM     20  H2  <0> d          46.966  48.191  48.058  0.00  0.00     0.187 HD
ATOM     21  O4  <0> d          49.393  48.459  47.588  0.00  0.00    -0.265 OA
ATOM     22  N7  <0> d          45.122  46.964  46.822  0.00  0.00    -0.233 N 
ATOM     23  H16 <0> d          44.705  46.101  46.969  0.00  0.00     0.174 HD
ATOM     24  H17 <0> d          44.608  47.777  46.939  0.00  0.00     0.174 HD
ATOM     25  C7  <0> d          51.817  49.857  38.084  0.00  0.00     0.252 C 
ATOM     26  O1  <0> d          52.345  49.620  37.016  0.00  0.00    -0.268 OA
ATOM     27  N1  <0> d          51.142  51.010  38.261  0.00  0.00    -0.342 N 
ATOM     28  H7  <0> d          50.719  51.198  39.114  0.00  0.00     0.163 HD
ATOM     29  C8  <0> d          51.045  51.978  37.166  0.00  0.00     0.186 C 
ATOM     30  C9  <0> d          51.192  53.395  37.722  0.00  0.00     0.046 C 
ATOM     31  C10 <0> d          52.535  53.979  37.284  0.00  0.00     0.116 C 
ATOM     32  C11 <0> d          53.480  54.002  38.456  0.00  0.00     0.172 C 
ATOM     33  O2  <0> d          54.181  54.967  38.649  0.00  0.00    -0.648 OA
ATOM     34  O5  <0> d          53.544  52.949  39.288  0.00  0.00    -0.648 OA
ATOM     35  C12 <0> d          49.705  51.840  36.490  0.00  0.00     0.196 C 
ATOM     36  O3  <0> d          49.316  50.752  36.136  0.00  0.00    -0.646 OA
ATOM     37  O6  <0> d          48.944  52.925  36.281  0.00  0.00    -0.646 OA
ENDMDL
MODEL 2
REMARK VINA RESULT:      -9.5      2.123      2.914
ATOM      1  C1  <0> d          52.192  48.748  40.930  0.00  0.00     0.019 A 
ATOM      2  C2  <0> d          52.274  47.957  42.053  0.00  0.00     0.030 A 
ATOM      3  C3  <0> d          51.947  46.606  41.981  0.00  0.00     0.028 A 
ATOM      4  C4  <0> d          51.536  46.051  40.772  0.00  0.00     0.030 A 
ATOM      5  C5  <0> d          51.452  46.837  39.645  0.00  0.00     0.019 A 
ATOM      6  C6  <0> d          51.780  48.194  39.715  0.00  0.00     0.032 A 
ATOM      7  N2  <0> d          52.031  45.810  43.117  0.00  0.00    -0.384 N 
ATOM      8  H12 <0> d          52.031  44.843  43.033  0.00  0.00     0.160 HD
ATOM      9  C13 <0> d          52.116  46.430  44.442  0.00  0.00     0.180 C 
ATOM     10  C14 <0> d          50.733  46.782  44.922  0.00  0.00     0.070 A 
ATOM     11  N4  <0> d          49.844  45.828  45.113  0.00  0.00    -0.241 NA
ATOM     12  C17 <0> d          48.628  46.140  45.540  0.00  0.00     0.174 A 
ATOM     13  C16 <0> d          48.286  47.491  45.780  0.00  0.00     0.202 A 
ATOM     14  C18 <0> d          47.600  45.112  45.775  0.00  0.00     0.292 A 
ATOM     15  N3  <0> d          49.196  48.443  45.578  0.00  0.00    -0.237 NA
ATOM     16  N6  <0> d          47.044  47.785  46.210  0.00  0.00    -0.043 NA
ATOM     17  C15 <0> d          50.402  48.112  45.157  0.00  0.00     0.147 A 
ATOM     18  C19 <0> d          46.145  46.854  46.412  0.00  0.00     0.703 A 
ATOM     19  N5  <0> d          46.388  45.527  46.207  0.00  0.00    -0.152 N 
ATOM     20  H2  <0> d          45.664  44.857  46.378  0.00  0.00     0.187 HD
ATOM     21  O4  <0> d          47.833  43.932  45.587  0.00  0.00    -0.265 OA
ATOM     22  N7  <0> d          44.902  47.230  46.850  0.00  0.00    -0.233 N 
ATOM     23  H16 <0> d          44.750  47.393  47.795  0.00  0.00     0.174 HD
ATOM     24  H17 <0> d          44.175  47.333  46.217  0.00  0.00     0.174 HD
ATOM     25  C7  <0> d          51.697  49.037  38.507  0.00  0.00     0.252 C 
ATOM     26  O1  <0> d          52.299  50.091  38.459  0.00  0.00    -0.268 OA
ATOM     27  N1  <0> d          50.953  48.637  37.457  0.00  0.00    -0.342 N 
ATOM     28  H7  <0> d          50.472  47.795  37.496  0.00  0.00     0.163 HD
ATOM     29  C8  <0> d          50.870  49.473  36.257  0.00  0.00     0.186 C 
ATOM     30  C9  <0> d          49.618  50.349  36.330  0.00  0.00     0.046 C 
ATOM     31  C10 <0> d          50.005  51.812  36.113  0.00  0.00     0.116 C 
ATOM     32  C11 <0> d          49.304  52.674  37.130  0.00  0.00     0.172 C 
ATOM     33  O2  <0> d          48.711  53.666  36.777  0.00  0.00    -0.648 OA
ATOM     34  O5  <0> d          49.337  52.340  38.431  0.00  0.00    -0.648 OA
ATOM     35  C12 <0> d          50.797  48.594  35.036  0.00  0.00     0.196 C 
ATOM     36  O3  <0> d          50.111  47.600  35.047  0.00  0.00    -0.646 OA
ATOM     37  O6  <0> d          51.494  48.915  33.935  0.00  0.00    -0.646 OA
ENDMDL
MODEL 3
REMARK VINA RESULT:      -9.4      2.167      2.935
ATOM      1  C1  <0> d          51.730  49.019  40.380  0.00  0.00     0.019 A 
ATOM      2  C2  <0> d          52.216  48.345  41.476  0.00  0.00     0.030 A 
ATOM      3  C3  <0> d          51.953  46.986  41.633  0.00  0.00     0.028 A 
ATOM      4  C4  <0> d          51.197  46.308  40.682  0.00  0.00     0.030 A 
ATOM      5  C5  <0> d          50.708  46.977  39.582  0.00  0.00     0.019 A 
ATOM      6  C6  <0> d          50.971  48.340  39.422  0.00  0.00     0.032 A 
ATOM      7  N2  <0> d          52.444  46.307  42.742  0.00  0.00    -0.384 N 
ATOM      8  H12 <0> d          52.756  45.394  42.652  0.00  0.00     0.160 HD
ATOM      9  C13 <0> d          52.489  46.972  44.047  0.00  0.00     0.180 C 
ATOM     10  C14 <0> d          51.088  47.142  44.573  0.00  0.00     0.070 A 
ATOM     11  N4  <0> d          50.356  46.080  44.843  0.00  0.00    -0.241 NA
ATOM     12  C17 <0> d          49.124  46.233  45.310  0.00  0.00     0.174 A 
ATOM     13  C16 <0> d          48.596  47.530  45.507  0.00  0.00     0.202 A 
ATOM     14  C18 <0> d          48.268  45.079  45.633  0.00  0.00     0.292 A 
ATOM     15  N3  <0> d          49.349  48.593  45.223  0.00  0.00    -0.237 NA
ATOM     16  N6  <0> d          47.342  47.662  45.978  0.00  0.00    -0.043 NA
ATOM     17  C15 <0> d          50.573  48.421  44.764  0.00  0.00     0.147 A 
ATOM     18  C19 <0> d          46.597  46.621  46.259  0.00  0.00     0.703 A 
ATOM     19  N5  <0> d          47.025  45.335  46.100  0.00  0.00    -0.152 N 
ATOM     20  H2  <0> d          46.414  44.577  46.331  0.00  0.00     0.187 HD
ATOM     21  O4  <0> d          48.664  43.938  45.486  0.00  0.00    -0.265 OA
ATOM     22  N7  <0> d          45.330  46.834  46.735  0.00  0.00    -0.233 N 
ATOM     23  H16 <0> d          45.196  47.369  47.532  0.00  0.00     0.174 HD
ATOM     24  H17 <0> d          44.568  46.450  46.274  0.00  0.00     0.174 HD
ATOM     25  C7  <0> d          50.454  49.059  38.242  0.00  0.00     0.252 C 
ATOM     26  O1  <0> d          49.954  48.439  37.324  0.00  0.00    -0.268 OA
ATOM     27  N1  <0> d          50.536  50.402  38.183  0.00  0.00    -0.342 N 
ATOM     28  H7  <0> d          50.935  50.897  38.916  0.00  0.00     0.163 HD
ATOM     29  C8  <0> d          50.023  51.117  37.012  0.00  0.00     0.186 C 
ATOM     30  C9  <0> d          51.193  51.587  36.146  0.00  0.00     0.046 C 
ATOM     31  C10 <0> d          51.077  50.970  34.752  0.00  0.00     0.116 C 
ATOM     32  C11 <0> d          51.798  49.647  34.726  0.00  0.00     0.172 C 
ATOM     33  O2  <0> d          51.398  48.755  34.016  0.00  0.00    -0.648 OA
ATOM     34  O5  <0> d          52.885  49.459  35.493  0.00  0.00    -0.648 OA
ATOM     35  C12 <0> d          49.221  52.310  37.463  0.00  0.00     0.196 C 
ATOM     36  O3  <0> d          48.893  53.155  36.663  0.00  0.00    -0.646 OA
ATOM     37  O6  <0> d          48.870  52.435  38.752  0.00  0.00    -0.646 OA
ENDMDL
MODEL 4
REMARK VINA RESULT:      -9.4      2.325      3.677
ATOM      1  C1  <0> d          50.913  49.611  41.033  0.00  0.00     0.019 A 
ATOM      2  C2  <0> d          51.397  49.262  42.273  0.00  0.00     0.030 A 
ATOM      3  C3  <0> d          52.152  48.103  42.427  0.00  0.00     0.028 A 
ATOM      4  C4  <0> d          52.420  47.293  41.327  0.00  0.00     0.030 A 
ATOM      5  C5  <0> d          51.939  47.636  40.083  0.00  0.00     0.019 A 
ATOM      6  C6  <0> d          51.181  48.801  39.926  0.00  0.00     0.032 A 
ATOM      7  N2  <0> d          52.639  47.753  43.681  0.00  0.00    -0.384 N 
ATOM      8  H12 <0> d          53.264  48.336  44.139  0.00  0.00     0.160 HD
ATOM      9  C13 <0> d          52.209  46.501  44.310  0.00  0.00     0.180 C 
ATOM     10  C14 <0> d          50.739  46.579  44.630  0.00  0.00     0.070 A 
ATOM     11  N4  <0> d          50.341  47.168  45.739  0.00  0.00    -0.241 NA
ATOM     12  C17 <0> d          49.046  47.240  46.017  0.00  0.00     0.174 A 
ATOM     13  C16 <0> d          48.099  46.678  45.130  0.00  0.00     0.202 A 
ATOM     14  C18 <0> d          48.549  47.892  47.240  0.00  0.00     0.292 A 
ATOM     15  N3  <0> d          48.520  46.081  44.014  0.00  0.00    -0.237 NA
ATOM     16  N6  <0> d          46.789  46.758  45.432  0.00  0.00    -0.043 NA
ATOM     17  C15 <0> d          49.812  46.025  43.754  0.00  0.00     0.147 A 
ATOM     18  C19 <0> d          46.369  47.343  46.527  0.00  0.00     0.703 A 
ATOM     19  N5  <0> d          47.210  47.912  47.438  0.00  0.00    -0.152 N 
ATOM     20  H2  <0> d          46.835  48.346  48.257  0.00  0.00     0.187 HD
ATOM     21  O4  <0> d          49.312  48.395  48.042  0.00  0.00    -0.265 OA
ATOM     22  N7  <0> d          45.020  47.386  46.768  0.00  0.00    -0.233 N 
ATOM     23  H16 <0> d          44.413  46.872  46.213  0.00  0.00     0.174 HD
ATOM     24  H17 <0> d          44.674  47.930  47.491  0.00  0.00     0.174 HD
ATOM     25  C7  <0> d          50.670  49.175  38.593  0.00  0.00     0.252 C 
ATOM     26  O1  <0> d          49.611  49.763  38.491  0.00  0.00    -0.268 OA
ATOM     27  N1  <0> d          51.378  48.864  37.490  0.00  0.00    -0.342 N 
ATOM     28  H7  <0> d          52.223  48.396  37.572  0.00  0.00     0.163 HD
ATOM     29  C8  <0> d          50.872  49.236  36.166  0.00  0.00     0.186 C 
ATOM     30  C9  <0> d          50.611  47.971  35.346  0.00  0.00     0.046 C 
ATOM     31  C10 <0> d          49.408  47.226  35.925  0.00  0.00     0.116 C 
ATOM     32  C11 <0> d          49.869  46.304  37.023  0.00  0.00     0.172 C 
ATOM     33  O2  <0> d          49.102  45.972  37.895  0.00  0.00    -0.648 OA
ATOM     34  O5  <0> d          51.133  45.849  37.032  0.00  0.00    -0.648 OA
ATOM     35  C12 <0> d          51.892  50.091  35.460  0.00  0.00     0.196 C 
ATOM     36  O3  <0> d          52.937  49.607  35.094  0.00  0.00    -0.646 OA
ATOM     37  O6  <0> d          51.640  51.390  35.236  0.00  0.00    -0.646 OA
ENDMDL
MODEL 5
REMARK VINA RESULT:      -9.4      1.697      2.366
ATOM      1  C1  <0> d          51.415  46.863  39.866  0.00  0.00     0.019 A 
ATOM      2  C2  <0> d          51.541  46.113  41.012  0.00  0.00     0.030 A 
ATOM      3  C3  <0> d          52.047  46.692  42.173  0.00  0.00     0.028 A 
ATOM      4  C4  <0> d          52.428  48.031  42.176  0.00  0.00     0.030 A 
ATOM      5  C5  <0> d          52.305  48.787  41.033  0.00  0.00     0.019 A 
ATOM      6  C6  <0> d          51.796  48.208  39.866  0.00  0.00     0.032 A 
ATOM      7  N2  <0> d          52.173  45.932  43.330  0.00  0.00    -0.384 N 
ATOM      8  H12 <0> d          52.387  44.988  43.269  0.00  0.00     0.160 HD
ATOM      9  C13 <0> d          51.981  46.556  44.642  0.00  0.00     0.180 C 
ATOM     10  C14 <0> d          50.509  46.643  44.946  0.00  0.00     0.070 A 
ATOM     11  N4  <0> d          50.090  47.389  45.948  0.00  0.00    -0.241 NA
ATOM     12  C17 <0> d          48.793  47.468  46.211  0.00  0.00     0.174 A 
ATOM     13  C16 <0> d          47.865  46.747  45.425  0.00  0.00     0.202 A 
ATOM     14  C18 <0> d          48.273  48.292  47.316  0.00  0.00     0.292 A 
ATOM     15  N3  <0> d          48.306  45.994  44.417  0.00  0.00    -0.237 NA
ATOM     16  N6  <0> d          46.553  46.838  45.711  0.00  0.00    -0.043 NA
ATOM     17  C15 <0> d          49.600  45.932  44.169  0.00  0.00     0.147 A 
ATOM     18  C19 <0> d          46.112  47.578  46.700  0.00  0.00     0.703 A 
ATOM     19  N5  <0> d          46.934  48.306  47.509  0.00  0.00    -0.152 N 
ATOM     20  H2  <0> d          46.544  48.854  48.249  0.00  0.00     0.187 HD
ATOM     21  O4  <0> d          49.020  48.936  48.029  0.00  0.00    -0.265 OA
ATOM     22  N7  <0> d          44.762  47.621  46.931  0.00  0.00    -0.233 N 
ATOM     23  H16 <0> d          44.430  47.760  47.832  0.00  0.00     0.174 HD
ATOM     24  H17 <0> d          44.140  47.513  46.196  0.00  0.00     0.174 HD
ATOM     25  C7  <0> d          51.657  49.017  38.640  0.00  0.00     0.252 C 
ATOM     26  O1  <0> d          52.269  50.062  38.529  0.00  0.00    -0.268 OA
ATOM     27  N1  <0> d          50.852  48.598  37.645  0.00  0.00    -0.342 N 
ATOM     28  H7  <0> d          50.365  47.764  37.734  0.00  0.00     0.163 HD
ATOM     29  C8  <0> d          50.713  49.400  36.427  0.00  0.00     0.186 C 
ATOM     30  C9  <0> d          49.374  50.139  36.451  0.00  0.00     0.046 C 
ATOM     31  C10 <0> d          49.605  51.601  36.833  0.00  0.00     0.116 C 
ATOM     32  C11 <0> d          50.711  52.174  35.986  0.00  0.00     0.172 C 
ATOM     33  O2  <0> d          51.694  52.641  36.511  0.00  0.00    -0.648 OA
ATOM     34  O5  <0> d          50.606  52.164  34.647  0.00  0.00    -0.648 OA
ATOM     35  C12 <0> d          50.767  48.497  35.221  0.00  0.00     0.196 C 
ATOM     36  O3  <0> d          50.139  47.466  35.211  0.00  0.00    -0.646 OA
ATOM     37  O6  <0> d          51.513  48.840  34.159  0.00  0.00    -0.646 OA
ENDMDL
MODEL 6
REMARK VINA RESULT:      -9.1      1.854      3.206
ATOM      1  C1  <0> d          49.410  48.533  39.683  0.00  0.00     0.019 A 
ATOM      2  C2  <0> d          49.549  47.328  40.333  0.00  0.00     0.030 A 
ATOM      3  C3  <0> d          50.817  46.818  40.597  0.00  0.00     0.028 A 
ATOM      4  C4  <0> d          51.949  47.526  40.201  0.00  0.00     0.030 A 
ATOM      5  C5  <0> d          51.818  48.731  39.550  0.00  0.00     0.019 A 
ATOM      6  C6  <0> d          50.545  49.246  39.285  0.00  0.00     0.032 A 
ATOM      7  N2  <0> d          50.954  45.601  41.254  0.00  0.00    -0.384 N 
ATOM      8  H12 <0> d          50.532  44.806  40.893  0.00  0.00     0.160 HD
ATOM      9  C13 <0> d          51.733  45.520  42.492  0.00  0.00     0.180 C 
ATOM     10  C14 <0> d          51.026  46.282  43.582  0.00  0.00     0.070 A 
ATOM     11  N4  <0> d          49.819  45.912  43.962  0.00  0.00    -0.241 NA
ATOM     12  C17 <0> d          49.200  46.582  44.925  0.00  0.00     0.174 A 
ATOM     13  C16 <0> d          49.829  47.693  45.532  0.00  0.00     0.202 A 
ATOM     14  C18 <0> d          47.855  46.206  45.390  0.00  0.00     0.292 A 
ATOM     15  N3  <0> d          51.048  48.056  45.132  0.00  0.00    -0.237 NA
ATOM     16  N6  <0> d          49.181  48.361  46.505  0.00  0.00    -0.043 NA
ATOM     17  C15 <0> d          51.649  47.374  44.176  0.00  0.00     0.147 A 
ATOM     18  C19 <0> d          47.983  48.009  46.904  0.00  0.00     0.703 A 
ATOM     19  N5  <0> d          47.303  46.952  46.374  0.00  0.00    -0.152 N 
ATOM     20  H2  <0> d          46.390  46.727  46.717  0.00  0.00     0.187 HD
ATOM     21  O4  <0> d          47.261  45.260  44.907  0.00  0.00    -0.265 OA
ATOM     22  N7  <0> d          47.386  48.738  47.900  0.00  0.00    -0.233 N 
ATOM     23  H16 <0> d          47.911  49.045  48.655  0.00  0.00     0.174 HD
ATOM     24  H17 <0> d          46.441  48.945  47.848  0.00  0.00     0.174 HD
ATOM     25  C7  <0> d          50.401  50.540  38.593  0.00  0.00     0.252 C 
ATOM     26  O1  <0> d          49.396  51.205  38.750  0.00  0.00    -0.268 OA
ATOM     27  N1  <0> d          51.385  50.986  37.788  0.00  0.00    -0.342 N 
ATOM     28  H7  <0> d          52.188  50.455  37.663  0.00  0.00     0.163 HD
ATOM     29  C8  <0> d          51.244  52.272  37.100  0.00  0.00     0.186 C 
ATOM     30  C9  <0> d          51.473  52.077  35.600  0.00  0.00     0.046 C 
ATOM     31  C10 <0> d          50.702  50.848  35.121  0.00  0.00     0.116 C 
ATOM     32  C11 <0> d          51.674  49.780  34.691  0.00  0.00     0.172 C 
ATOM     33  O2  <0> d          52.697  49.610  35.311  0.00  0.00    -0.648 OA
ATOM     34  O5  <0> d          51.404  49.018  33.619  0.00  0.00    -0.648 OA
ATOM     35  C12 <0> d          52.258  53.245  37.641  0.00  0.00     0.196 C 
ATOM     36  O3  <0> d          52.811  53.021  38.692  0.00  0.00    -0.646 OA
ATOM     37  O6  <0> d          52.549  54.363  36.956  0.00  0.00    -0.646 OA
ENDMDL
MODEL 7
REMARK VINA RESULT:      -9.1      2.809      9.953
ATOM      1  C1  <0> d          49.955  48.753  43.404  0.00  0.00     0.019 A 
ATOM      2  C2  <0> d          50.709  49.136  42.319  0.00  0.00     0.030 A 
ATOM      3  C3  <0> d          51.912  48.492  42.041  0.00  0.00     0.028 A 
ATOM      4  C4  <0> d          52.355  47.459  42.862  0.00  0.00     0.030 A 
ATOM      5  C5  <0> d          51.605  47.070  43.949  0.00  0.00     0.019 A 
ATOM      6  C6  <0> d          50.396  47.715  44.229  0.00  0.00     0.032 A 
ATOM      7  N2  <0> d          52.672  48.882  40.945  0.00  0.00    -0.384 N 
ATOM      8  H12 <0> d          53.409  48.328  40.645  0.00  0.00     0.160 HD
ATOM      9  C13 <0> d          52.360  50.130  40.244  0.00  0.00     0.180 C 
ATOM     10  C14 <0> d          51.992  49.825  38.815  0.00  0.00     0.070 A 
ATOM     11  N4  <0> d          51.763  50.813  37.973  0.00  0.00    -0.241 NA
ATOM     12  C17 <0> d          51.444  50.542  36.715  0.00  0.00     0.174 A 
ATOM     13  C16 <0> d          51.341  49.199  36.283  0.00  0.00     0.202 A 
ATOM     14  C18 <0> d          51.184  51.608  35.733  0.00  0.00     0.292 A 
ATOM     15  N3  <0> d          51.572  48.213  37.149  0.00  0.00    -0.237 NA
ATOM     16  N6  <0> d          51.012  48.947  35.002  0.00  0.00    -0.043 NA
ATOM     17  C15 <0> d          51.893  48.503  38.396  0.00  0.00     0.147 A 
ATOM     18  C19 <0> d          50.785  49.912  34.145  0.00  0.00     0.703 A 
ATOM     19  N5  <0> d          50.862  51.234  34.474  0.00  0.00    -0.152 N 
ATOM     20  H2  <0> d          50.678  51.930  33.780  0.00  0.00     0.187 HD
ATOM     21  O4  <0> d          51.256  52.783  36.043  0.00  0.00    -0.265 OA
ATOM     22  N7  <0> d          50.455  49.577  32.857  0.00  0.00    -0.233 N 
ATOM     23  H16 <0> d          49.568  49.239  32.658  0.00  0.00     0.174 HD
ATOM     24  H17 <0> d          51.107  49.679  32.148  0.00  0.00     0.174 HD
ATOM     25  C7  <0> d          49.588  47.297  45.390  0.00  0.00     0.252 C 
ATOM     26  O1  <0> d          50.126  47.070  46.456  0.00  0.00    -0.268 OA
ATOM     27  N1  <0> d          48.252  47.166  45.267  0.00  0.00    -0.342 N 
ATOM     28  H7  <0> d          47.823  47.347  44.416  0.00  0.00     0.163 HD
ATOM     29  C8  <0> d          47.448  46.751  46.419  0.00  0.00     0.186 C 
ATOM     30  C9  <0> d          46.648  45.498  46.059  0.00  0.00     0.046 C 
ATOM     31  C10 <0> d          47.608  44.343  45.775  0.00  0.00     0.116 C 
ATOM     32  C11 <0> d          47.556  43.995  44.310  0.00  0.00     0.172 C 
ATOM     33  O2  <0> d          48.141  44.680  43.505  0.00  0.00    -0.648 OA
ATOM     34  O5  <0> d          46.860  42.923  43.898  0.00  0.00    -0.648 OA
ATOM     35  C12 <0> d          46.501  47.860  46.797  0.00  0.00     0.196 C 
ATOM     36  O3  <0> d          46.933  48.945  47.108  0.00  0.00    -0.646 OA
ATOM     37  O6  <0> d          45.176  47.644  46.787  0.00  0.00    -0.646 OA
ENDMDL
MODEL 8
REMARK VINA RESULT:      -9.0      5.683      9.757
ATOM      1  C1  <0> d          46.912  51.402  45.798  0.00  0.00     0.019 A 
ATOM      2  C2  <0> d          45.701  51.975  45.486  0.00  0.00     0.030 A 
ATOM      3  C3  <0> d          44.656  51.185  45.012  0.00  0.00     0.028 A 
ATOM      4  C4  <0> d          44.836  49.814  44.852  0.00  0.00     0.030 A 
ATOM      5  C5  <0> d          46.045  49.234  45.163  0.00  0.00     0.019 A 
ATOM      6  C6  <0> d          47.095  50.025  45.639  0.00  0.00     0.032 A 
ATOM      7  N2  <0> d          43.434  51.766  44.697  0.00  0.00    -0.384 N 
ATOM      8  H12 <0> d          43.386  52.456  44.017  0.00  0.00     0.160 HD
ATOM      9  C13 <0> d          42.217  51.338  45.394  0.00  0.00     0.180 C 
ATOM     10  C14 <0> d          41.263  50.721  44.405  0.00  0.00     0.070 A 
ATOM     11  N4  <0> d          41.494  49.511  43.939  0.00  0.00    -0.241 NA
ATOM     12  C17 <0> d          40.650  48.969  43.072  0.00  0.00     0.174 A 
ATOM     13  C16 <0> d          39.512  49.691  42.644  0.00  0.00     0.202 A 
ATOM     14  C18 <0> d          40.860  47.617  42.526  0.00  0.00     0.292 A 
ATOM     15  N3  <0> d          39.296  50.916  43.123  0.00  0.00    -0.237 NA
ATOM     16  N6  <0> d          38.670  49.123  41.760  0.00  0.00    -0.043 NA
ATOM     17  C15 <0> d          40.145  51.436  43.988  0.00  0.00     0.147 A 
ATOM     18  C19 <0> d          38.877  47.918  41.287  0.00  0.00     0.703 A 
ATOM     19  N5  <0> d          39.946  47.151  41.644  0.00  0.00    -0.152 N 
ATOM     20  H2  <0> d          40.055  46.237  41.252  0.00  0.00     0.187 HD
ATOM     21  O4  <0> d          41.820  46.945  42.855  0.00  0.00    -0.265 OA
ATOM     22  N7  <0> d          37.976  47.406  40.390  0.00  0.00    -0.233 N 
ATOM     23  H16 <0> d          37.624  47.968  39.682  0.00  0.00     0.174 HD
ATOM     24  H17 <0> d          37.689  46.483  40.464  0.00  0.00     0.174 HD
ATOM     25  C7  <0> d          48.391  49.407  45.979  0.00  0.00     0.252 C 
ATOM     26  O1  <0> d          49.128  49.943  46.782  0.00  0.00    -0.268 OA
ATOM     27  N1  <0> d          48.755  48.247  45.398  0.00  0.00    -0.342 N 
ATOM     28  H7  <0> d          48.166  47.819  44.758  0.00  0.00     0.163 HD
ATOM     29  C8  <0> d          50.041  47.631  45.735  0.00  0.00     0.186 C 
ATOM     30  C9  <0> d          50.856  47.417  44.458  0.00  0.00     0.046 C 
ATOM     31  C10 <0> d          49.915  47.373  43.254  0.00  0.00     0.116 C 
ATOM     32  C11 <0> d          49.747  45.947  42.799  0.00  0.00     0.172 C 
ATOM     33  O2  <0> d          50.556  45.452  42.050  0.00  0.00    -0.648 OA
ATOM     34  O5  <0> d          48.699  45.224  43.227  0.00  0.00    -0.648 OA
ATOM     35  C12 <0> d          49.803  46.304  46.407  0.00  0.00     0.196 C 
ATOM     36  O3  <0> d          50.735  45.577  46.657  0.00  0.00    -0.646 OA
ATOM     37  O6  <0> d          48.554  45.928  46.727  0.00  0.00    -0.646 OA
ENDMDL
MODEL 9
REMARK VINA RESULT:      -9.0      6.884     11.299
ATOM      1  C1  <0> d          43.810  49.334  45.177  0.00  0.00     0.019 A 
ATOM      2  C2  <0> d          42.712  50.143  45.360  0.00  0.00     0.030 A 
ATOM      3  C3  <0> d          42.835  51.525  45.247  0.00  0.00     0.028 A 
ATOM      4  C4  <0> d          44.071  52.093  44.949  0.00  0.00     0.030 A 
ATOM      5  C5  <0> d          45.174  51.290  44.764  0.00  0.00     0.019 A 
ATOM      6  C6  <0> d          45.052  49.901  44.877  0.00  0.00     0.032 A 
ATOM      7  N2  <0> d          41.725  52.339  45.433  0.00  0.00    -0.384 N 
ATOM      8  H12 <0> d          41.427  52.556  46.331  0.00  0.00     0.160 HD
ATOM      9  C13 <0> d          41.001  52.869  44.274  0.00  0.00     0.180 C 
ATOM     10  C14 <0> d          39.879  51.932  43.912  0.00  0.00     0.070 A 
ATOM     11  N4  <0> d          39.618  51.682  42.645  0.00  0.00    -0.241 NA
ATOM     12  C17 <0> d          38.632  50.853  42.329  0.00  0.00     0.174 A 
ATOM     13  C16 <0> d          37.859  50.250  43.347  0.00  0.00     0.202 A 
ATOM     14  C18 <0> d          38.304  50.535  40.929  0.00  0.00     0.292 A 
ATOM     15  N3  <0> d          38.133  50.519  44.624  0.00  0.00    -0.237 NA
ATOM     16  N6  <0> d          36.860  49.415  43.004  0.00  0.00    -0.043 NA
ATOM     17  C15 <0> d          39.121  51.342  44.918  0.00  0.00     0.147 A 
ATOM     18  C19 <0> d          36.586  49.146  41.751  0.00  0.00     0.703 A 
ATOM     19  N5  <0> d          37.279  49.681  40.705  0.00  0.00    -0.152 N 
ATOM     20  H2  <0> d          37.027  49.442  39.767  0.00  0.00     0.187 HD
ATOM     21  O4  <0> d          38.933  51.021  40.007  0.00  0.00    -0.265 OA
ATOM     22  N7  <0> d          35.554  48.286  41.479  0.00  0.00    -0.233 N 
ATOM     23  H16 <0> d          35.718  47.480  40.966  0.00  0.00     0.174 HD
ATOM     24  H17 <0> d          34.660  48.484  41.799  0.00  0.00     0.174 HD
ATOM     25  C7  <0> d          46.230  49.038  44.674  0.00  0.00     0.252 C 
ATOM     26  O1  <0> d          46.691  48.892  43.559  0.00  0.00    -0.268 OA
ATOM     27  N1  <0> d          46.794  48.411  45.724  0.00  0.00    -0.342 N 
ATOM     28  H7  <0> d          46.426  48.528  46.614  0.00  0.00     0.163 HD
ATOM     29  C8  <0> d          47.965  47.553  45.524  0.00  0.00     0.186 C 
ATOM     30  C9  <0> d          47.726  46.198  46.191  0.00  0.00     0.046 C 
ATOM     31  C10 <0> d          48.629  45.145  45.547  0.00  0.00     0.116 C 
ATOM     32  C11 <0> d          47.799  43.961  45.125  0.00  0.00     0.172 C 
ATOM     33  O2  <0> d          48.063  42.858  45.542  0.00  0.00    -0.648 OA
ATOM     34  O5  <0> d          46.765  44.131  44.285  0.00  0.00    -0.648 OA
ATOM     35  C12 <0> d          49.178  48.207  46.135  0.00  0.00     0.196 C 
ATOM     36  O3  <0> d          49.145  48.591  47.280  0.00  0.00    -0.646 OA
ATOM     37  O6  <0> d          50.295  48.362  45.407  0.00  0.00    -0.646 OA
ENDMDL
MODEL 10
REMARK VINA RESULT:      -8.8      6.763     10.759
ATOM      1  C1  <0> d          44.665  49.455  45.361  0.00  0.00     0.019 A 
ATOM      2  C2  <0> d          43.354  49.764  45.082  0.00  0.00     0.030 A 
ATOM      3  C3  <0> d          42.978  51.089  44.871  0.00  0.00     0.028 A 
ATOM      4  C4  <0> d          43.929  52.103  44.943  0.00  0.00     0.030 A 
ATOM      5  C5  <0> d          45.242  51.800  45.222  0.00  0.00     0.019 A 
ATOM      6  C6  <0> d          45.622  50.471  45.434  0.00  0.00     0.032 A 
ATOM      7  N2  <0> d          41.653  51.398  44.590  0.00  0.00    -0.384 N 
ATOM      8  H12 <0> d          40.979  51.319  45.282  0.00  0.00     0.160 HD
ATOM      9  C13 <0> d          41.273  51.842  43.246  0.00  0.00     0.180 C 
ATOM     10  C14 <0> d          40.004  51.149  42.827  0.00  0.00     0.070 A 
ATOM     11  N4  <0> d          40.064  49.974  42.233  0.00  0.00    -0.241 NA
ATOM     12  C17 <0> d          38.945  49.363  41.870  0.00  0.00     0.174 A 
ATOM     13  C16 <0> d          37.693  49.975  42.111  0.00  0.00     0.202 A 
ATOM     14  C18 <0> d          38.958  48.048  41.209  0.00  0.00     0.292 A 
ATOM     15  N3  <0> d          37.650  51.166  42.709  0.00  0.00    -0.237 NA
ATOM     16  N6  <0> d          36.569  49.339  41.731  0.00  0.00    -0.043 NA
ATOM     17  C15 <0> d          38.775  51.755  43.067  0.00  0.00     0.147 A 
ATOM     18  C19 <0> d          36.604  48.168  41.143  0.00  0.00     0.703 A 
ATOM     19  N5  <0> d          37.765  47.505  40.872  0.00  0.00    -0.152 N 
ATOM     20  H2  <0> d          37.734  46.613  40.421  0.00  0.00     0.187 HD
ATOM     21  O4  <0> d          40.002  47.469  40.974  0.00  0.00    -0.265 OA
ATOM     22  N7  <0> d          35.418  47.582  40.785  0.00  0.00    -0.233 N 
ATOM     23  H16 <0> d          34.614  47.763  41.297  0.00  0.00     0.174 HD
ATOM     24  H17 <0> d          35.382  46.988  40.020  0.00  0.00     0.174 HD
ATOM     25  C7  <0> d          47.030  50.143  45.727  0.00  0.00     0.252 C 
ATOM     26  O1  <0> d          47.779  51.002  46.149  0.00  0.00    -0.268 OA
ATOM     27  N1  <0> d          47.485  48.891  45.525  0.00  0.00    -0.342 N 
ATOM     28  H7  <0> d          46.886  48.206  45.189  0.00  0.00     0.163 HD
ATOM     29  C8  <0> d          48.883  48.563  45.817  0.00  0.00     0.186 C 
ATOM     30  C9  <0> d          49.476  47.773  44.649  0.00  0.00     0.046 C 
ATOM     31  C10 <0> d          50.997  47.927  44.648  0.00  0.00     0.116 C 
ATOM     32  C11 <0> d          51.641  46.566  44.701  0.00  0.00     0.172 C 
ATOM     33  O2  <0> d          52.000  46.028  43.681  0.00  0.00    -0.648 OA
ATOM     34  O5  <0> d          51.816  45.951  45.882  0.00  0.00    -0.648 OA
ATOM     35  C12 <0> d          48.954  47.734  47.072  0.00  0.00     0.196 C 
ATOM     36  O3  <0> d          49.273  48.247  48.118  0.00  0.00    -0.646 OA
ATOM     37  O6  <0> d          48.662  46.424  47.029  0.00  0.00    -0.646 OA
ENDMDL
MODEL 1
REMARK VINA RESULT:      -9.7      0.000      0.000
ATOM      1  C1  <0> d          52.077  49.404  40.556  0.00  0.00     0.019 A 
ATOM      2  C2  <0> d          52.184  48.504  41.589  0.00  0.00     0.030 A 
ATOM      3  C3  <0> d          52.109  47.137  41.335  0.00  0.00     0.028 A 
ATOM      4  C4  <0> d          51.924  46.678  40.034  0.00  0.00     0.030 A 
ATOM      5  C5  <0> d          51.815  47.574  38.995  0.00  0.00     0.019 A 
ATOM      6  C6  <0> d          51.890  48.948  39.248  0.00  0.00     0.032 A 
ATOM      7  N2  <0> d          52.218  46.229  42.382  0.00  0.00    -0.384 N 
ATOM      8  H12 <0> d          52.360  45.288  42.195  0.00  0.00     0.160 HD
ATOM      9  C13 <0> d          52.117  46.693  43.768  0.00  0.00     0.180 C 
ATOM     10  C14 <0> d          50.675  46.668  44.204  0.00  0.00     0.070 A 
ATOM     11  N4  <0> d          50.327  47.230  45.343  0.00  0.00    -0.241 NA
ATOM     12  C17 <0> d          49.056  47.211  45.723  0.00  0.00     0.174 A 
ATOM     13  C16 <0> d          48.083  46.581  44.913  0.00  0.00     0.202 A 
ATOM     14  C18 <0> d          48.614  47.829  46.985  0.00  0.00     0.292 A 
ATOM     15  N3  <0> d          48.455  46.013  43.765  0.00  0.00    -0.237 NA
ATOM     16  N6  <0> d          46.800  46.570  45.319  0.00  0.00    -0.043 NA
ATOM     17  C15 <0> d          49.723  46.048  43.402  0.00  0.00     0.147 A 
ATOM     18  C19 <0> d          46.428  47.126  46.445  0.00  0.00     0.703 A 
ATOM     19  N5  <0> d          47.297  47.755  47.288  0.00  0.00    -0.152 N 
ATOM     20  H2  <0> d          46.959  48.163  48.136  0.00  0.00     0.187 HD
ATOM     21  O4  <0> d          49.402  48.386  47.725  0.00  0.00    -0.265 OA
ATOM     22  N7  <0> d          45.103  47.074  46.793  0.00  0.00    -0.233 N 
ATOM     23  H16 <0> d          44.851  46.899  47.713  0.00  0.00     0.174 HD
ATOM     24  H17 <0> d          44.420  47.211  46.121  0.00  0.00     0.174 HD
ATOM     25  C7  <0> d          51.781  49.910  38.136  0.00  0.00     0.252 C 
ATOM     26  O1  <0> d          52.308  49.667  37.067  0.00  0.00    -0.268 OA
ATOM     27  N1  <0> d          51.097  51.060  38.305  0.00  0.00    -0.342 N 
ATOM     28  H7  <0> d          50.678  51.253  39.157  0.00  0.00     0.163 HD
ATOM     29  C8  <0> d          50.989  52.016  37.199  0.00  0.00     0.186 C 
ATOM     30  C9  <0> d          51.174  53.438  37.735  0.00  0.00     0.046 C 
ATOM     31  C10 <0> d          52.531  53.979  37.283  0.00  0.00     0.116 C 
ATOM     32  C11 <0> d          53.468  54.035  38.463  0.00  0.00     0.172 C 
ATOM     33  O2  <0> d          54.126  55.028  38.666  0.00  0.00    -0.648 OA
ATOM     34  O5  <0> d          53.572  52.980  39.287  0.00  0.00    -0.648 OA
ATOM     35  C12 <0> d          49.629  51.893  36.561  0.00  0.00     0.196 C 
ATOM     36  O3  <0> d          49.184  50.802  36.291  0.00  0.00    -0.646 OA
ATOM     37  O6  <0> d          48.912  52.995  36.292  0.00  0.00    -0.646 OA
ENDMDL
MODEL 2
REMARK VINA RESULT:      -9.7      1.870      2.397
ATOM      1  C1  <0> d          50.857  49.792  40.817  0.00  0.00     0.019 A 
ATOM      2  C2  <0> d          51.459  49.242  41.923  0.00  0.00     0.030 A 
ATOM      3  C3  <0> d          52.155  48.040  41.815  0.00  0.00     0.028 A 
ATOM      4  C4  <0> d          52.239  47.391  40.586  0.00  0.00     0.030 A 
ATOM      5  C5  <0> d          51.638  47.936  39.475  0.00  0.00     0.019 A 
ATOM      6  C6  <0> d          50.939  49.143  39.581  0.00  0.00     0.032 A 
ATOM      7  N2  <0> d          52.763  47.487  42.935  0.00  0.00    -0.384 N 
ATOM      8  H12 <0> d          53.454  47.980  43.405  0.00  0.00     0.160 HD
ATOM      9  C13 <0> d          52.362  46.159  43.407  0.00  0.00     0.180 C 
ATOM     10  C14 <0> d          50.923  46.197  43.853  0.00  0.00     0.070 A 
ATOM     11  N4  <0> d          50.619  46.685  45.038  0.00  0.00    -0.241 NA
ATOM     12  C17 <0> d          49.351  46.722  45.427  0.00  0.00     0.174 A 
ATOM     13  C16 <0> d          48.334  46.229  44.577  0.00  0.00     0.202 A 
ATOM     14  C18 <0> d          48.957  47.261  46.739  0.00  0.00     0.292 A 
ATOM     15  N3  <0> d          48.661  45.735  43.382  0.00  0.00    -0.237 NA
ATOM     16  N6  <0> d          47.054  46.273  44.992  0.00  0.00    -0.043 NA
ATOM     17  C15 <0> d          49.927  45.712  43.011  0.00  0.00     0.147 A 
ATOM     18  C19 <0> d          46.725  46.758  46.164  0.00  0.00     0.703 A 
ATOM     19  N5  <0> d          47.639  47.253  47.048  0.00  0.00    -0.152 N 
ATOM     20  H2  <0> d          47.333  47.612  47.930  0.00  0.00     0.187 HD
ATOM     21  O4  <0> d          49.785  47.700  47.516  0.00  0.00    -0.265 OA
ATOM     22  N7  <0> d          45.402  46.768  46.519  0.00  0.00    -0.233 N 
ATOM     23  H16 <0> d          44.954  45.938  46.742  0.00  0.00     0.174 HD
ATOM     24  H17 <0> d          44.914  47.605  46.546  0.00  0.00     0.174 HD
ATOM     25  C7  <0> d          50.299  49.733  38.391  0.00  0.00     0.252 C 
ATOM     26  O1  <0> d          49.654  49.031  37.637  0.00  0.00    -0.268 OA
ATOM     27  N1  <0> d          50.431  51.051  38.138  0.00  0.00    -0.342 N 
ATOM     28  H7  <0> d          50.946  51.610  38.740  0.00  0.00     0.163 HD
ATOM     29  C8  <0> d          49.795  51.637  36.955  0.00  0.00     0.186 C 
ATOM     30  C9  <0> d          50.869  52.000  35.927  0.00  0.00     0.046 C 
ATOM     31  C10 <0> d          50.761  51.061  34.724  0.00  0.00     0.116 C 
ATOM     32  C11 <0> d          51.667  49.875  34.931  0.00  0.00     0.172 C 
ATOM     33  O2  <0> d          52.517  49.906  35.789  0.00  0.00    -0.648 OA
ATOM     34  O5  <0> d          51.529  48.783  34.161  0.00  0.00    -0.648 OA
ATOM     35  C12 <0> d          49.041  52.879  37.354  0.00  0.00     0.196 C 
ATOM     36  O3  <0> d          48.856  53.759  36.546  0.00  0.00    -0.646 OA
ATOM     37  O6  <0> d          48.573  53.009  38.605  0.00  0.00    -0.646 OA
ENDMDL
MODEL 3
REMARK VINA RESULT:      -9.5      2.148      2.823
ATOM      1  C1  <0> d          52.204  48.717  41.018  0.00  0.00     0.019 A 
ATOM      2  C2  <0> d          52.295  47.927  42.139  0.00  0.00     0.030 A 
ATOM      3  C3  <0> d          51.946  46.580  42.074  0.00  0.00     0.028 A 
ATOM      4  C4  <0> d          51.503  46.031  40.874  0.00  0.00     0.030 A 
ATOM      5  C5  <0> d          51.409  46.816  39.748  0.00  0.00     0.019 A 
ATOM      6  C6  <0> d          51.759  48.169  39.811  0.00  0.00     0.032 A 
ATOM      7  N2  <0> d          52.039  45.784  43.210  0.00  0.00    -0.384 N 
ATOM      8  H12 <0> d          52.055  44.818  43.124  0.00  0.00     0.160 HD
ATOM      9  C13 <0> d          52.111  46.403  44.535  0.00  0.00     0.180 C 
ATOM     10  C14 <0> d          50.724  46.761  45.000  0.00  0.00     0.070 A 
ATOM     11  N4  <0> d          49.828  45.811  45.173  0.00  0.00    -0.241 NA
ATOM     12  C17 <0> d          48.608  46.127  45.587  0.00  0.00     0.174 A 
ATOM     13  C16 <0> d          48.270  47.478  45.832  0.00  0.00     0.202 A 
ATOM     14  C18 <0> d          47.570  45.104  45.800  0.00  0.00     0.292 A 
ATOM     15  N3  <0> d          49.189  48.427  45.648  0.00  0.00    -0.237 NA
ATOM     16  N6  <0> d          47.025  47.778  46.249  0.00  0.00    -0.043 NA
ATOM     17  C15 <0> d          50.398  48.092  45.241  0.00  0.00     0.147 A 
ATOM     18  C19 <0> d          46.117  46.851  46.432  0.00  0.00     0.703 A 
ATOM     19  N5  <0> d          46.354  45.524  46.221  0.00  0.00    -0.152 N 
ATOM     20  H2  <0> d          45.625  44.858  46.377  0.00  0.00     0.187 HD
ATOM     21  O4  <0> d          47.798  43.924  45.607  0.00  0.00    -0.265 OA
ATOM     22  N7  <0> d          44.872  47.232  46.857  0.00  0.00    -0.233 N 
ATOM     23  H16 <0> d          44.770  48.014  47.421  0.00  0.00     0.174 HD
ATOM     24  H17 <0> d          44.093  46.719  46.595  0.00  0.00     0.174 HD
ATOM     25  C7  <0> d          51.666  49.012  38.604  0.00  0.00     0.252 C 
ATOM     26  O1  <0> d          52.251  50.077  38.560  0.00  0.00    -0.268 OA
ATOM     27  N1  <0> d          50.930  48.602  37.552  0.00  0.00    -0.342 N 
ATOM     28  H7  <0> d          50.463  47.753  37.588  0.00  0.00     0.163 HD
ATOM     29  C8  <0> d          50.838  49.440  36.353  0.00  0.00     0.186 C 
ATOM     30  C9  <0> d          49.531  50.237  36.387  0.00  0.00     0.046 C 
ATOM     31  C10 <0> d          49.807  51.686  35.983  0.00  0.00     0.116 C 
ATOM     32  C11 <0> d          49.294  52.612  37.055  0.00  0.00     0.172 C 
ATOM     33  O2  <0> d          48.884  53.710  36.759  0.00  0.00    -0.648 OA
ATOM     34  O5  <0> d          49.295  52.218  38.339  0.00  0.00    -0.648 OA
ATOM     35  C12 <0> d          50.861  48.565  35.126  0.00  0.00     0.196 C 
ATOM     36  O3  <0> d          50.219  47.542  35.101  0.00  0.00    -0.646 OA
ATOM     37  O6  <0> d          51.594  48.923  34.060  0.00  0.00    -0.646 OA
ENDMDL
MODEL 4
REMARK VINA RESULT:      -9.3      2.224      2.952
ATOM      1  C1  <0> d          50.334  47.204  39.808  0.00  0.00     0.019 A 
ATOM      2  C2  <0> d          50.915  46.546  40.865  0.00  0.00     0.030 A 
ATOM      3  C3  <0> d          51.924  47.162  41.604  0.00  0.00     0.028 A 
ATOM      4  C4  <0> d          52.346  48.446  41.272  0.00  0.00     0.030 A 
ATOM      5  C5  <0> d          51.769  49.111  40.214  0.00  0.00     0.019 A 
ATOM      6  C6  <0> d          50.756  48.494  39.472  0.00  0.00     0.032 A 
ATOM      7  N2  <0> d          52.509  46.492  42.672  0.00  0.00    -0.384 N 
ATOM      8  H12 <0> d          52.898  45.614  42.538  0.00  0.00     0.160 HD
ATOM      9  C13 <0> d          52.537  47.112  43.998  0.00  0.00     0.180 C 
ATOM     10  C14 <0> d          51.130  47.255  44.518  0.00  0.00     0.070 A 
ATOM     11  N4  <0> d          50.433  46.179  44.819  0.00  0.00    -0.241 NA
ATOM     12  C17 <0> d          49.196  46.307  45.281  0.00  0.00     0.174 A 
ATOM     13  C16 <0> d          48.626  47.592  45.437  0.00  0.00     0.202 A 
ATOM     14  C18 <0> d          48.375  45.137  45.637  0.00  0.00     0.292 A 
ATOM     15  N3  <0> d          49.346  48.670  45.123  0.00  0.00    -0.237 NA
ATOM     16  N6  <0> d          47.368  47.699  45.904  0.00  0.00    -0.043 NA
ATOM     17  C15 <0> d          50.576  48.522  44.671  0.00  0.00     0.147 A 
ATOM     18  C19 <0> d          46.656  46.645  46.216  0.00  0.00     0.703 A 
ATOM     19  N5  <0> d          47.123  45.368  46.096  0.00  0.00    -0.152 N 
ATOM     20  H2  <0> d          46.537  44.599  46.349  0.00  0.00     0.187 HD
ATOM     21  O4  <0> d          48.807  44.005  45.525  0.00  0.00    -0.265 OA
ATOM     22  N7  <0> d          45.382  46.832  46.684  0.00  0.00    -0.233 N 
ATOM     23  H16 <0> d          44.633  46.825  46.068  0.00  0.00     0.174 HD
ATOM     24  H17 <0> d          45.229  46.973  47.630  0.00  0.00     0.174 HD
ATOM     25  C7  <0> d          50.131  49.207  38.342  0.00  0.00     0.252 C 
ATOM     26  O1  <0> d          49.314  48.640  37.643  0.00  0.00    -0.268 OA
ATOM     27  N1  <0> d          50.468  50.487  38.084  0.00  0.00    -0.342 N 
ATOM     28  H7  <0> d          51.121  50.937  38.641  0.00  0.00     0.163 HD
ATOM     29  C8  <0> d          49.847  51.195  36.961  0.00  0.00     0.186 C 
ATOM     30  C9  <0> d          50.924  51.580  35.943  0.00  0.00     0.046 C 
ATOM     31  C10 <0> d          50.758  50.733  34.681  0.00  0.00     0.116 C 
ATOM     32  C11 <0> d          51.534  49.450  34.832  0.00  0.00     0.172 C 
ATOM     33  O2  <0> d          52.729  49.484  35.012  0.00  0.00    -0.648 OA
ATOM     34  O5  <0> d          50.898  48.270  34.765  0.00  0.00    -0.648 OA
ATOM     35  C12 <0> d          49.166  52.440  37.468  0.00  0.00     0.196 C 
ATOM     36  O3  <0> d          48.882  52.540  38.638  0.00  0.00    -0.646 OA
ATOM     37  O6  <0> d          48.874  53.438  36.619  0.00  0.00    -0.646 OA
ENDMDL
MODEL 5
REMARK VINA RESULT:      -9.1      3.081      9.035
ATOM      1  C1  <0> d          50.372  45.971  42.856  0.00  0.00     0.019 A 
ATOM      2  C2  <0> d          50.962  46.107  41.622  0.00  0.00     0.030 A 
ATOM      3  C3  <0> d          52.006  47.011  41.443  0.00  0.00     0.028 A 
ATOM      4  C4  <0> d          52.455  47.780  42.513  0.00  0.00     0.030 A 
ATOM      5  C5  <0> d          51.868  47.649  43.751  0.00  0.00     0.019 A 
ATOM      6  C6  <0> d          50.819  46.742  43.933  0.00  0.00     0.032 A 
ATOM      7  N2  <0> d          52.600  47.146  40.194  0.00  0.00    -0.384 N 
ATOM      8  H12 <0> d          53.556  47.293  40.125  0.00  0.00     0.160 HD
ATOM      9  C13 <0> d          51.783  47.066  38.981  0.00  0.00     0.180 C 
ATOM     10  C14 <0> d          51.194  48.420  38.680  0.00  0.00     0.070 A 
ATOM     11  N4  <0> d          50.208  48.883  39.422  0.00  0.00    -0.241 NA
ATOM     12  C17 <0> d          49.694  50.077  39.159  0.00  0.00     0.174 A 
ATOM     13  C16 <0> d          50.196  50.844  38.082  0.00  0.00     0.202 A 
ATOM     14  C18 <0> d          48.595  50.643  39.959  0.00  0.00     0.292 A 
ATOM     15  N3  <0> d          51.192  50.357  37.340  0.00  0.00    -0.237 NA
ATOM     16  N6  <0> d          49.659  52.052  37.830  0.00  0.00    -0.043 NA
ATOM     17  C15 <0> d          51.693  49.170  37.620  0.00  0.00     0.147 A 
ATOM     18  C19 <0> d          48.681  52.536  38.555  0.00  0.00     0.703 A 
ATOM     19  N5  <0> d          48.135  51.867  39.612  0.00  0.00    -0.152 N 
ATOM     20  H2  <0> d          47.390  52.284  40.132  0.00  0.00     0.187 HD
ATOM     21  O4  <0> d          48.120  50.033  40.899  0.00  0.00    -0.265 OA
ATOM     22  N7  <0> d          48.183  53.773  38.239  0.00  0.00    -0.233 N 
ATOM     23  H16 <0> d          47.234  53.887  38.078  0.00  0.00     0.174 HD
ATOM     24  H17 <0> d          48.780  54.534  38.174  0.00  0.00     0.174 HD
ATOM     25  C7  <0> d          50.193  46.594  45.260  0.00  0.00     0.252 C 
ATOM     26  O1  <0> d          50.785  46.015  46.151  0.00  0.00    -0.268 OA
ATOM     27  N1  <0> d          48.964  47.101  45.485  0.00  0.00    -0.342 N 
ATOM     28  H7  <0> d          48.493  47.562  44.775  0.00  0.00     0.163 HD
ATOM     29  C8  <0> d          48.342  46.955  46.804  0.00  0.00     0.186 C 
ATOM     30  C9  <0> d          46.880  46.536  46.635  0.00  0.00     0.046 C 
ATOM     31  C10 <0> d          46.728  45.724  45.347  0.00  0.00     0.116 C 
ATOM     32  C11 <0> d          46.970  44.266  45.643  0.00  0.00     0.172 C 
ATOM     33  O2  <0> d          46.043  43.547  45.932  0.00  0.00    -0.648 OA
ATOM     34  O5  <0> d          48.215  43.767  45.584  0.00  0.00    -0.648 OA
ATOM     35  C12 <0> d          48.407  48.269  47.539  0.00  0.00     0.196 C 
ATOM     36  O3  <0> d          49.309  48.484  48.314  0.00  0.00    -0.646 OA
ATOM     37  O6  <0> d          47.463  49.201  47.332  0.00  0.00    -0.646 OA
ENDMDL
MODEL 6
REMARK VINA RESULT:      -9.0      6.878     11.241
ATOM      1  C1  <0> d          44.993  50.724  44.950  0.00  0.00     0.019 A 
ATOM      2  C2  <0> d          43.755  51.320  44.991  0.00  0.00     0.030 A 
ATOM      3  C3  <0> d          42.618  50.592  44.648  0.00  0.00     0.028 A 
ATOM      4  C4  <0> d          42.732  49.260  44.260  0.00  0.00     0.030 A 
ATOM      5  C5  <0> d          43.969  48.658  44.216  0.00  0.00     0.019 A 
ATOM      6  C6  <0> d          45.112  49.387  44.561  0.00  0.00     0.032 A 
ATOM      7  N2  <0> d          41.368  51.198  44.690  0.00  0.00    -0.384 N 
ATOM      8  H12 <0> d          40.850  51.183  45.510  0.00  0.00     0.160 HD
ATOM      9  C13 <0> d          40.832  51.858  43.498  0.00  0.00     0.180 C 
ATOM     10  C14 <0> d          39.641  51.089  42.988  0.00  0.00     0.070 A 
ATOM     11  N4  <0> d          39.825  49.959  42.335  0.00  0.00    -0.241 NA
ATOM     12  C17 <0> d          38.775  49.280  41.891  0.00  0.00     0.174 A 
ATOM     13  C16 <0> d          37.467  49.773  42.109  0.00  0.00     0.202 A 
ATOM     14  C18 <0> d          38.925  48.010  41.160  0.00  0.00     0.292 A 
ATOM     15  N3  <0> d          37.302  50.920  42.768  0.00  0.00    -0.237 NA
ATOM     16  N6  <0> d          36.416  49.070  41.647  0.00  0.00    -0.043 NA
ATOM     17  C15 <0> d          38.358  51.578  43.207  0.00  0.00     0.147 A 
ATOM     18  C19 <0> d          36.572  47.942  40.999  0.00  0.00     0.703 A 
ATOM     19  N5  <0> d          37.795  47.392  40.743  0.00  0.00    -0.152 N 
ATOM     20  H2  <0> d          37.856  46.528  40.244  0.00  0.00     0.187 HD
ATOM     21  O4  <0> d          40.023  47.533  40.940  0.00  0.00    -0.265 OA
ATOM     22  N7  <0> d          35.455  47.282  40.558  0.00  0.00    -0.233 N 
ATOM     23  H16 <0> d          35.426  46.313  40.577  0.00  0.00     0.174 HD
ATOM     24  H17 <0> d          34.696  47.784  40.225  0.00  0.00     0.174 HD
ATOM     25  C7  <0> d          46.438  48.742  44.521  0.00  0.00     0.252 C 
ATOM     26  O1  <0> d          47.163  48.902  43.559  0.00  0.00    -0.268 OA
ATOM     27  N1  <0> d          46.844  47.974  45.552  0.00  0.00    -0.342 N 
ATOM     28  H7  <0> d          46.265  47.846  46.319  0.00  0.00     0.163 HD
ATOM     29  C8  <0> d          48.161  47.333  45.513  0.00  0.00     0.186 C 
ATOM     30  C9  <0> d          48.057  45.917  46.084  0.00  0.00     0.046 C 
ATOM     31  C10 <0> d          46.725  45.294  45.662  0.00  0.00     0.116 C 
ATOM     32  C11 <0> d          46.969  43.917  45.102  0.00  0.00     0.172 C 
ATOM     33  O2  <0> d          46.292  43.508  44.188  0.00  0.00    -0.648 OA
ATOM     34  O5  <0> d          47.939  43.145  45.618  0.00  0.00    -0.648 OA
ATOM     35  C12 <0> d          49.136  48.136  46.336  0.00  0.00     0.196 C 
ATOM     36  O3  <0> d          49.676  49.104  45.857  0.00  0.00    -0.646 OA
ATOM     37  O6  <0> d          49.403  47.775  47.601  0.00  0.00    -0.646 OA
ENDMDL
MODEL 7
REMARK VINA RESULT:      -8.9      2.918      4.245
ATOM      1  C1  <0> d          46.788  51.123  41.699  0.00  0.00     0.019 A 
ATOM      2  C2  <0> d          46.329  51.234  42.990  0.00  0.00     0.030 A 
ATOM      3  C3  <0> d          47.229  51.411  44.038  0.00  0.00     0.028 A 
ATOM      4  C4  <0> d          48.596  51.476  43.781  0.00  0.00     0.030 A 
ATOM      5  C5  <0> d          49.062  51.366  42.491  0.00  0.00     0.019 A 
ATOM      6  C6  <0> d          48.160  51.188  41.437  0.00  0.00     0.032 A 
ATOM      7  N2  <0> d          46.762  51.522  45.342  0.00  0.00    -0.384 N 
ATOM      8  H12 <0> d          45.931  51.990  45.521  0.00  0.00     0.160 HD
ATOM      9  C13 <0> d          47.523  50.935  46.447  0.00  0.00     0.180 C 
ATOM     10  C14 <0> d          47.508  49.433  46.325  0.00  0.00     0.070 A 
ATOM     11  N4  <0> d          48.631  48.786  46.085  0.00  0.00    -0.241 NA
ATOM     12  C17 <0> d          48.617  47.463  45.983  0.00  0.00     0.174 A 
ATOM     13  C16 <0> d          47.401  46.754  46.122  0.00  0.00     0.202 A 
ATOM     14  C18 <0> d          49.843  46.692  45.720  0.00  0.00     0.292 A 
ATOM     15  N3  <0> d          46.274  47.427  46.361  0.00  0.00    -0.237 NA
ATOM     16  N6  <0> d          47.408  45.413  46.012  0.00  0.00    -0.043 NA
ATOM     17  C15 <0> d          46.310  48.741  46.464  0.00  0.00     0.147 A 
ATOM     18  C19 <0> d          48.511  44.746  45.778  0.00  0.00     0.703 A 
ATOM     19  N5  <0> d          49.727  45.346  45.630  0.00  0.00    -0.152 N 
ATOM     20  H2  <0> d          50.539  44.789  45.453  0.00  0.00     0.187 HD
ATOM     21  O4  <0> d          50.920  47.243  45.591  0.00  0.00    -0.265 OA
ATOM     22  N7  <0> d          48.441  43.381  45.678  0.00  0.00    -0.233 N 
ATOM     23  H16 <0> d          47.779  42.891  46.189  0.00  0.00     0.174 HD
ATOM     24  H17 <0> d          49.054  42.906  45.097  0.00  0.00     0.174 HD
ATOM     25  C7  <0> d          48.656  51.076  40.052  0.00  0.00     0.252 C 
ATOM     26  O1  <0> d          48.532  50.031  39.445  0.00  0.00    -0.268 OA
ATOM     27  N1  <0> d          49.248  52.134  39.462  0.00  0.00    -0.342 N 
ATOM     28  H7  <0> d          49.347  52.967  39.948  0.00  0.00     0.163 HD
ATOM     29  C8  <0> d          49.741  52.023  38.086  0.00  0.00     0.186 C 
ATOM     30  C9  <0> d          51.218  52.421  38.040  0.00  0.00     0.046 C 
ATOM     31  C10 <0> d          52.087  51.185  38.276  0.00  0.00     0.116 C 
ATOM     32  C11 <0> d          52.757  51.291  39.622  0.00  0.00     0.172 C 
ATOM     33  O2  <0> d          53.964  51.279  39.698  0.00  0.00    -0.648 OA
ATOM     34  O5  <0> d          52.014  51.398  40.735  0.00  0.00    -0.648 OA
ATOM     35  C12 <0> d          48.946  52.938  37.192  0.00  0.00     0.196 C 
ATOM     36  O3  <0> d          49.111  52.908  35.995  0.00  0.00    -0.646 OA
ATOM     37  O6  <0> d          48.053  53.787  37.724  0.00  0.00    -0.646 OA
ENDMDL
MODEL 8
REMARK VINA RESULT:      -8.8      6.870     11.145
ATOM      1  C1  <0> d          43.846  47.939  44.102  0.00  0.00     0.019 A 
ATOM      2  C2  <0> d          43.068  48.825  43.396  0.00  0.00     0.030 A 
ATOM      3  C3  <0> d          43.013  50.164  43.776  0.00  0.00     0.028 A 
ATOM      4  C4  <0> d          43.746  50.608  44.873  0.00  0.00     0.030 A 
ATOM      5  C5  <0> d          44.526  49.726  45.585  0.00  0.00     0.019 A 
ATOM      6  C6  <0> d          44.582  48.381  45.205  0.00  0.00     0.032 A 
ATOM      7  N2  <0> d          42.226  51.057  43.059  0.00  0.00    -0.384 N 
ATOM      8  H12 <0> d          42.460  51.283  42.145  0.00  0.00     0.160 HD
ATOM      9  C13 <0> d          41.044  51.656  43.682  0.00  0.00     0.180 C 
ATOM     10  C14 <0> d          39.802  50.981  43.161  0.00  0.00     0.070 A 
ATOM     11  N4  <0> d          39.909  49.878  42.448  0.00  0.00    -0.241 NA
ATOM     12  C17 <0> d          38.815  49.282  41.993  0.00  0.00     0.174 A 
ATOM     13  C16 <0> d          37.541  49.835  42.264  0.00  0.00     0.202 A 
ATOM     14  C18 <0> d          38.878  48.045  41.196  0.00  0.00     0.292 A 
ATOM     15  N3  <0> d          37.453  50.954  42.983  0.00  0.00    -0.237 NA
ATOM     16  N6  <0> d          36.444  49.216  41.791  0.00  0.00    -0.043 NA
ATOM     17  C15 <0> d          38.553  51.529  43.432  0.00  0.00     0.147 A 
ATOM     18  C19 <0> d          36.523  48.116  41.083  0.00  0.00     0.703 A 
ATOM     19  N5  <0> d          37.707  47.513  40.774  0.00  0.00    -0.152 N 
ATOM     20  H2  <0> d          37.710  46.673  40.231  0.00  0.00     0.187 HD
ATOM     21  O4  <0> d          39.943  47.520  40.929  0.00  0.00    -0.265 OA
ATOM     22  N7  <0> d          35.362  47.543  40.634  0.00  0.00    -0.233 N 
ATOM     23  H16 <0> d          34.658  47.318  41.262  0.00  0.00     0.174 HD
ATOM     24  H17 <0> d          35.246  47.361  39.690  0.00  0.00     0.174 HD
ATOM     25  C7  <0> d          45.423  47.435  45.963  0.00  0.00     0.252 C 
ATOM     26  O1  <0> d          45.534  47.550  47.168  0.00  0.00    -0.268 OA
ATOM     27  N1  <0> d          46.069  46.443  45.318  0.00  0.00    -0.342 N 
ATOM     28  H7  <0> d          45.981  46.352  44.356  0.00  0.00     0.163 HD
ATOM     29  C8  <0> d          46.905  45.503  46.070  0.00  0.00     0.186 C 
ATOM     30  C9  <0> d          48.359  45.977  46.040  0.00  0.00     0.046 C 
ATOM     31  C10 <0> d          48.614  46.760  44.751  0.00  0.00     0.116 C 
ATOM     32  C11 <0> d          49.385  45.899  43.785  0.00  0.00     0.172 C 
ATOM     33  O2  <0> d          48.811  45.346  42.876  0.00  0.00    -0.648 OA
ATOM     34  O5  <0> d          50.711  45.745  43.934  0.00  0.00    -0.648 OA
ATOM     35  C12 <0> d          46.809  44.135  45.446  0.00  0.00     0.196 C 
ATOM     36  O3  <0> d          47.657  43.305  45.676  0.00  0.00    -0.646 OA
ATOM     37  O6  <0> d          45.783  43.838  44.633  0.00  0.00    -0.646 OA
ENDMDL
MODEL 9
REMARK VINA RESULT:      -8.8      5.685      9.664
ATOM      1  C1  <0> d          45.781  48.936  45.041  0.00  0.00     0.019 A 
ATOM      2  C2  <0> d          44.678  49.705  45.327  0.00  0.00     0.030 A 
ATOM      3  C3  <0> d          44.467  50.904  44.650  0.00  0.00     0.028 A 
ATOM      4  C4  <0> d          45.375  51.328  43.683  0.00  0.00     0.030 A 
ATOM      5  C5  <0> d          46.481  50.564  43.392  0.00  0.00     0.019 A 
ATOM      6  C6  <0> d          46.694  49.359  44.071  0.00  0.00     0.032 A 
ATOM      7  N2  <0> d          43.351  51.679  44.942  0.00  0.00    -0.384 N 
ATOM      8  H12 <0> d          43.342  52.621  44.712  0.00  0.00     0.160 HD
ATOM      9  C13 <0> d          42.189  51.074  45.597  0.00  0.00     0.180 C 
ATOM     10  C14 <0> d          41.265  50.502  44.554  0.00  0.00     0.070 A 
ATOM     11  N4  <0> d          41.491  49.298  44.070  0.00  0.00    -0.241 NA
ATOM     12  C17 <0> d          40.673  48.794  43.154  0.00  0.00     0.174 A 
ATOM     13  C16 <0> d          39.571  49.552  42.694  0.00  0.00     0.202 A 
ATOM     14  C18 <0> d          40.878  47.452  42.584  0.00  0.00     0.292 A 
ATOM     15  N3  <0> d          39.360  50.771  43.193  0.00  0.00    -0.237 NA
ATOM     16  N6  <0> d          38.755  49.023  41.763  0.00  0.00    -0.043 NA
ATOM     17  C15 <0> d          40.181  51.252  44.106  0.00  0.00     0.147 A 
ATOM     18  C19 <0> d          38.956  47.826  41.269  0.00  0.00     0.703 A 
ATOM     19  N5  <0> d          39.992  47.026  41.653  0.00  0.00    -0.152 N 
ATOM     20  H2  <0> d          40.099  46.120  41.244  0.00  0.00     0.187 HD
ATOM     21  O4  <0> d          41.808  46.751  42.938  0.00  0.00    -0.265 OA
ATOM     22  N7  <0> d          38.084  47.355  40.323  0.00  0.00    -0.233 N 
ATOM     23  H16 <0> d          37.780  46.435  40.360  0.00  0.00     0.174 HD
ATOM     24  H17 <0> d          37.772  47.941  39.617  0.00  0.00     0.174 HD
ATOM     25  C7  <0> d          47.876  48.534  43.756  0.00  0.00     0.252 C 
ATOM     26  O1  <0> d          48.156  48.289  42.599  0.00  0.00    -0.268 OA
ATOM     27  N1  <0> d          48.645  48.051  44.753  0.00  0.00    -0.342 N 
ATOM     28  H7  <0> d          48.420  48.247  45.676  0.00  0.00     0.163 HD
ATOM     29  C8  <0> d          49.818  47.231  44.441  0.00  0.00     0.186 C 
ATOM     30  C9  <0> d          49.828  45.991  45.338  0.00  0.00     0.046 C 
ATOM     31  C10 <0> d          48.391  45.521  45.573  0.00  0.00     0.116 C 
ATOM     32  C11 <0> d          48.114  44.310  44.720  0.00  0.00     0.172 C 
ATOM     33  O2  <0> d          48.003  44.427  43.522  0.00  0.00    -0.648 OA
ATOM     34  O5  <0> d          47.989  43.102  45.292  0.00  0.00    -0.648 OA
ATOM     35  C12 <0> d          51.071  48.035  44.681  0.00  0.00     0.196 C 
ATOM     36  O3  <0> d          52.129  47.472  44.837  0.00  0.00    -0.646 OA
ATOM     37  O6  <0> d          51.011  49.375  44.722  0.00  0.00    -0.646 OA
ENDMDL
MODEL 10
REMARK VINA RESULT:      -8.8      3.025      8.461
ATOM      1  C1  <0> d          51.568  48.348  42.632  0.00  0.00     0.019 A 
ATOM      2  C2  <0> d          51.714  47.523  41.542  0.00  0.00     0.030 A 
ATOM      3  C3  <0> d          50.590  47.037  40.879  0.00  0.00     0.028 A 
ATOM      4  C4  <0> d          49.315  47.384  41.318  0.00  0.00     0.030 A 
ATOM      5  C5  <0> d          49.162  48.210  42.408  0.00  0.00     0.019 A 
ATOM      6  C6  <0> d          50.290  48.700  43.076  0.00  0.00     0.032 A 
ATOM      7  N2  <0> d          50.741  46.202  39.778  0.00  0.00    -0.384 N 
ATOM      8  H12 <0> d          51.252  45.382  39.859  0.00  0.00     0.160 HD
ATOM      9  C13 <0> d          50.130  46.561  38.496  0.00  0.00     0.180 C 
ATOM     10  C14 <0> d          50.635  47.912  38.059  0.00  0.00     0.070 A 
ATOM     11  N4  <0> d          49.988  49.000  38.423  0.00  0.00    -0.241 NA
ATOM     12  C17 <0> d          50.436  50.189  38.041  0.00  0.00     0.174 A 
ATOM     13  C16 <0> d          51.596  50.285  37.238  0.00  0.00     0.202 A 
ATOM     14  C18 <0> d          49.753  51.436  38.424  0.00  0.00     0.292 A 
ATOM     15  N3  <0> d          52.236  49.172  36.876  0.00  0.00    -0.237 NA
ATOM     16  N6  <0> d          52.033  51.501  36.859  0.00  0.00    -0.043 NA
ATOM     17  C15 <0> d          51.778  48.000  37.271  0.00  0.00     0.147 A 
ATOM     18  C19 <0> d          51.409  52.598  37.212  0.00  0.00     0.703 A 
ATOM     19  N5  <0> d          50.284  52.600  37.983  0.00  0.00    -0.152 N 
ATOM     20  H2  <0> d          49.848  53.468  38.224  0.00  0.00     0.187 HD
ATOM     21  O4  <0> d          48.750  51.421  39.113  0.00  0.00    -0.265 OA
ATOM     22  N7  <0> d          51.912  53.800  36.787  0.00  0.00    -0.233 N 
ATOM     23  H16 <0> d          52.445  53.843  35.978  0.00  0.00     0.174 HD
ATOM     24  H17 <0> d          51.735  54.606  37.295  0.00  0.00     0.174 HD
ATOM     25  C7  <0> d          50.129  49.590  44.240  0.00  0.00     0.252 C 
ATOM     26  O1  <0> d          51.007  49.661  45.078  0.00  0.00    -0.268 OA
ATOM     27  N1  <0> d          49.006  50.325  44.376  0.00  0.00    -0.342 N 
ATOM     28  H7  <0> d          48.306  50.267  43.708  0.00  0.00     0.163 HD
ATOM     29  C8  <0> d          48.846  51.209  45.534  0.00  0.00     0.186 C 
ATOM     30  C9  <0> d          47.594  50.805  46.315  0.00  0.00     0.046 C 
ATOM     31  C10 <0> d          48.005  50.173  47.646  0.00  0.00     0.116 C 
ATOM     32  C11 <0> d          48.431  48.746  47.413  0.00  0.00     0.172 C 
ATOM     33  O2  <0> d          49.284  48.249  48.110  0.00  0.00    -0.648 OA
ATOM     34  O5  <0> d          47.863  48.028  46.431  0.00  0.00    -0.648 OA
ATOM     35  C12 <0> d          48.706  52.634  45.062  0.00  0.00     0.196 C 
ATOM     36  O3  <0> d          49.628  53.179  44.503  0.00  0.00    -0.646 OA
ATOM     37  O6  <0> d          47.556  53.297  45.261  0.00  0.00    -0.646 OA
ENDMDL
MODEL 1
REMARK VINA RESULT:      -9.4      0.000      0.000
ATOM      1  C1  <0> d          50.921  49.680  40.737  0.00  0.00     0.019 A 
ATOM      2  C2  <0> d          51.498  49.159  41.873  0.00  0.00     0.030 A 
ATOM      3  C3  <0> d          52.168  47.940  41.820  0.00  0.00     0.028 A 
ATOM      4  C4  <0> d          52.257  47.245  40.617  0.00  0.00     0.030 A 
ATOM      5  C5  <0> d          51.684  47.760  39.478  0.00  0.00     0.019 A 
ATOM      6  C6  <0> d          51.009  48.984  39.528  0.00  0.00     0.032 A 
ATOM      7  N2  <0> d          52.749  47.417  42.969  0.00  0.00    -0.384 N 
ATOM      8  H12 <0> d          53.434  47.919  43.438  0.00  0.00     0.160 HD
ATOM      9  C13 <0> d          52.328  46.106  43.471  0.00  0.00     0.180 C 
ATOM     10  C14 <0> d          50.886  46.172  43.902  0.00  0.00     0.070 A 
ATOM     11  N4  <0> d          50.582  46.649  45.093  0.00  0.00    -0.241 NA
ATOM     12  C17 <0> d          49.310  46.711  45.469  0.00  0.00     0.174 A 
ATOM     13  C16 <0> d          48.291  46.257  44.601  0.00  0.00     0.202 A 
ATOM     14  C18 <0> d          48.917  47.240  46.785  0.00  0.00     0.292 A 
ATOM     15  N3  <0> d          48.619  45.774  43.403  0.00  0.00    -0.237 NA
ATOM     16  N6  <0> d          47.008  46.326  45.004  0.00  0.00    -0.043 NA
ATOM     17  C15 <0> d          49.887  45.725  43.044  0.00  0.00     0.147 A 
ATOM     18  C19 <0> d          46.679  46.801  46.180  0.00  0.00     0.703 A 
ATOM     19  N5  <0> d          47.596  47.259  47.081  0.00  0.00    -0.152 N 
ATOM     20  H2  <0> d          47.290  47.612  47.965  0.00  0.00     0.187 HD
ATOM     21  O4  <0> d          49.746  47.645  47.578  0.00  0.00    -0.265 OA
ATOM     22  N7  <0> d          45.352  46.838  46.521  0.00  0.00    -0.233 N 
ATOM     23  H16 <0> d          44.675  46.663  45.850  0.00  0.00     0.174 HD
ATOM     24  H17 <0> d          45.092  47.040  47.432  0.00  0.00     0.174 HD
ATOM     25  C7  <0> d          50.398  49.542  38.307  0.00  0.00     0.252 C 
ATOM     26  O1  <0> d          49.826  48.808  37.523  0.00  0.00    -0.268 OA
ATOM     27  N1  <0> d          50.476  50.864  38.059  0.00  0.00    -0.342 N 
ATOM     28  H7  <0> d          50.933  51.448  38.684  0.00  0.00     0.163 HD
ATOM     29  C8  <0> d          49.869  51.419  36.846  0.00  0.00     0.186 C 
ATOM     30  C9  <0> d          50.967  51.743  35.830  0.00  0.00     0.046 C 
ATOM     31  C10 <0> d          50.782  50.873  34.585  0.00  0.00     0.116 C 
ATOM     32  C11 <0> d          51.602  49.617  34.724  0.00  0.00     0.172 C 
ATOM     33  O2  <0> d          51.152  48.558  34.355  0.00  0.00    -0.648 OA
ATOM     34  O5  <0> d          52.833  49.674  35.257  0.00  0.00    -0.648 OA
ATOM     35  C12 <0> d          49.117  52.679  37.191  0.00  0.00     0.196 C 
ATOM     36  O3  <0> d          48.859  53.484  36.327  0.00  0.00    -0.646 OA
ATOM     37  O6  <0> d          48.734  52.907  38.457  0.00  0.00    -0.646 OA
ENDMDL
MODEL 2
REMARK VINA RESULT:      -9.4      1.313      1.756
ATOM      1  C1  <0> d          51.889  48.816  40.539  0.00  0.00     0.019 A 
ATOM      2  C2  <0> d          52.326  48.118  41.642  0.00  0.00     0.030 A 
ATOM      3  C3  <0> d          52.033  46.764  41.771  0.00  0.00     0.028 A 
ATOM      4  C4  <0> d          51.299  46.111  40.785  0.00  0.00     0.030 A 
ATOM      5  C5  <0> d          50.861  46.802  39.680  0.00  0.00     0.019 A 
ATOM      6  C6  <0> d          51.153  48.163  39.547  0.00  0.00     0.032 A 
ATOM      7  N2  <0> d          52.475  46.062  42.887  0.00  0.00    -0.384 N 
ATOM      8  H12 <0> d          52.761  45.139  42.798  0.00  0.00     0.160 HD
ATOM      9  C13 <0> d          52.507  46.715  44.199  0.00  0.00     0.180 C 
ATOM     10  C14 <0> d          51.098  46.925  44.690  0.00  0.00     0.070 A 
ATOM     11  N4  <0> d          50.327  45.882  44.927  0.00  0.00    -0.241 NA
ATOM     12  C17 <0> d          49.088  46.069  45.364  0.00  0.00     0.174 A 
ATOM     13  C16 <0> d          48.596  47.380  45.563  0.00  0.00     0.202 A 
ATOM     14  C18 <0> d          48.189  44.940  45.650  0.00  0.00     0.292 A 
ATOM     15  N3  <0> d          49.389  48.422  45.312  0.00  0.00    -0.237 NA
ATOM     16  N6  <0> d          47.335  47.547  46.003  0.00  0.00    -0.043 NA
ATOM     17  C15 <0> d          50.619  48.216  44.883  0.00  0.00     0.147 A 
ATOM     18  C19 <0> d          46.550  46.527  46.252  0.00  0.00     0.703 A 
ATOM     19  N5  <0> d          46.941  45.230  46.088  0.00  0.00    -0.152 N 
ATOM     20  H2  <0> d          46.302  44.489  46.293  0.00  0.00     0.187 HD
ATOM     21  O4  <0> d          48.552  43.788  45.499  0.00  0.00    -0.265 OA
ATOM     22  N7  <0> d          45.278  46.775  46.697  0.00  0.00    -0.233 N 
ATOM     23  H16 <0> d          44.864  47.634  46.524  0.00  0.00     0.174 HD
ATOM     24  H17 <0> d          44.794  46.092  47.185  0.00  0.00     0.174 HD
ATOM     25  C7  <0> d          50.688  48.906  38.359  0.00  0.00     0.252 C 
ATOM     26  O1  <0> d          50.300  48.302  37.378  0.00  0.00    -0.268 OA
ATOM     27  N1  <0> d          50.697  50.253  38.363  0.00  0.00    -0.342 N 
ATOM     28  H7  <0> d          51.007  50.734  39.146  0.00  0.00     0.163 HD
ATOM     29  C8  <0> d          50.236  50.992  37.184  0.00  0.00     0.186 C 
ATOM     30  C9  <0> d          51.443  51.563  36.437  0.00  0.00     0.046 C 
ATOM     31  C10 <0> d          51.409  51.096  34.981  0.00  0.00     0.116 C 
ATOM     32  C11 <0> d          51.982  49.705  34.887  0.00  0.00     0.172 C 
ATOM     33  O2  <0> d          53.001  49.431  35.475  0.00  0.00    -0.648 OA
ATOM     34  O5  <0> d          51.360  48.772  34.149  0.00  0.00    -0.648 OA
ATOM     35  C12 <0> d          49.334  52.119  37.618  0.00  0.00     0.196 C 
ATOM     36  O3  <0> d          48.984  52.203  38.773  0.00  0.00    -0.646 OA
ATOM     37  O6  <0> d          48.921  53.030  36.724  0.00  0.00    -0.646 OA
ENDMDL
MODEL 3
REMARK VINA RESULT:      -9.4      1.622      3.022
ATOM      1  C1  <0> d          52.252  48.715  40.917  0.00  0.00     0.019 A 
ATOM      2  C2  <0> d          52.324  47.931  42.046  0.00  0.00     0.030 A 
ATOM      3  C3  <0> d          51.936  46.596  41.995  0.00  0.00     0.028 A 
ATOM      4  C4  <0> d          51.474  46.049  40.801  0.00  0.00     0.030 A 
ATOM      5  C5  <0> d          51.400  46.826  39.669  0.00  0.00     0.019 A 
ATOM      6  C6  <0> d          51.789  48.168  39.717  0.00  0.00     0.032 A 
ATOM      7  N2  <0> d          52.009  45.807  43.137  0.00  0.00    -0.384 N 
ATOM      8  H12 <0> d          52.002  44.840  43.061  0.00  0.00     0.160 HD
ATOM      9  C13 <0> d          52.096  46.436  44.458  0.00  0.00     0.180 C 
ATOM     10  C14 <0> d          50.711  46.784  44.941  0.00  0.00     0.070 A 
ATOM     11  N4  <0> d          49.823  45.827  45.121  0.00  0.00    -0.241 NA
ATOM     12  C17 <0> d          48.606  46.135  45.551  0.00  0.00     0.174 A 
ATOM     13  C16 <0> d          48.263  47.484  45.802  0.00  0.00     0.202 A 
ATOM     14  C18 <0> d          47.579  45.105  45.774  0.00  0.00     0.292 A 
ATOM     15  N3  <0> d          49.173  48.438  45.610  0.00  0.00    -0.237 NA
ATOM     16  N6  <0> d          47.021  47.774  46.235  0.00  0.00    -0.043 NA
ATOM     17  C15 <0> d          50.379  48.112  45.187  0.00  0.00     0.147 A 
ATOM     18  C19 <0> d          46.121  46.841  46.426  0.00  0.00     0.703 A 
ATOM     19  N5  <0> d          46.365  45.517  46.209  0.00  0.00    -0.152 N 
ATOM     20  H2  <0> d          45.642  44.845  46.372  0.00  0.00     0.187 HD
ATOM     21  O4  <0> d          47.811  43.926  45.575  0.00  0.00    -0.265 OA
ATOM     22  N7  <0> d          44.878  47.213  46.867  0.00  0.00    -0.233 N 
ATOM     23  H16 <0> d          44.110  46.653  46.680  0.00  0.00     0.174 HD
ATOM     24  H17 <0> d          44.768  48.037  47.366  0.00  0.00     0.174 HD
ATOM     25  C7  <0> d          51.716  49.003  38.503  0.00  0.00     0.252 C 
ATOM     26  O1  <0> d          52.352  50.037  38.437  0.00  0.00    -0.268 OA
ATOM     27  N1  <0> d          50.944  48.618  37.468  0.00  0.00    -0.342 N 
ATOM     28  H7  <0> d          50.437  47.793  37.522  0.00  0.00     0.163 HD
ATOM     29  C8  <0> d          50.871  49.446  36.261  0.00  0.00     0.186 C 
ATOM     30  C9  <0> d          49.612  50.315  36.314  0.00  0.00     0.046 C 
ATOM     31  C10 <0> d          49.952  51.734  35.858  0.00  0.00     0.116 C 
ATOM     32  C11 <0> d          49.590  52.712  36.947  0.00  0.00     0.172 C 
ATOM     33  O2  <0> d          48.717  53.527  36.761  0.00  0.00    -0.648 OA
ATOM     34  O5  <0> d          50.237  52.677  38.123  0.00  0.00    -0.648 OA
ATOM     35  C12 <0> d          50.817  48.558  35.044  0.00  0.00     0.196 C 
ATOM     36  O3  <0> d          51.434  48.859  34.049  0.00  0.00    -0.646 OA
ATOM     37  O6  <0> d          50.085  47.434  35.066  0.00  0.00    -0.646 OA
ENDMDL
MODEL 4
REMARK VINA RESULT:      -9.3      1.929      2.564
ATOM      1  C1  <0> d          51.880  49.244  40.392  0.00  0.00     0.019 A 
ATOM      2  C2  <0> d          52.243  48.487  41.483  0.00  0.00     0.030 A 
ATOM      3  C3  <0> d          52.010  47.116  41.490  0.00  0.00     0.028 A 
ATOM      4  C4  <0> d          51.408  46.504  40.394  0.00  0.00     0.030 A 
ATOM      5  C5  <0> d          51.042  47.254  39.300  0.00  0.00     0.019 A 
ATOM      6  C6  <0> d          51.276  48.633  39.290  0.00  0.00     0.032 A 
ATOM      7  N2  <0> d          52.378  46.354  42.593  0.00  0.00    -0.384 N 
ATOM      8  H12 <0> d          52.589  45.413  42.486  0.00  0.00     0.160 HD
ATOM      9  C13 <0> d          52.446  46.972  43.921  0.00  0.00     0.180 C 
ATOM     10  C14 <0> d          51.053  47.134  44.472  0.00  0.00     0.070 A 
ATOM     11  N4  <0> d          50.339  46.065  44.764  0.00  0.00    -0.241 NA
ATOM     12  C17 <0> d          49.114  46.210  45.254  0.00  0.00     0.174 A 
ATOM     13  C16 <0> d          48.576  47.503  45.450  0.00  0.00     0.202 A 
ATOM     14  C18 <0> d          48.277  45.050  45.603  0.00  0.00     0.292 A 
ATOM     15  N3  <0> d          49.312  48.571  45.144  0.00  0.00    -0.237 NA
ATOM     16  N6  <0> d          47.330  47.626  45.945  0.00  0.00    -0.043 NA
ATOM     17  C15 <0> d          50.529  48.408  44.663  0.00  0.00     0.147 A 
ATOM     18  C19 <0> d          46.601  46.580  46.249  0.00  0.00     0.703 A 
ATOM     19  N5  <0> d          47.039  45.298  46.092  0.00  0.00    -0.152 N 
ATOM     20  H2  <0> d          46.442  44.535  46.340  0.00  0.00     0.187 HD
ATOM     21  O4  <0> d          48.681  43.911  45.457  0.00  0.00    -0.265 OA
ATOM     22  N7  <0> d          45.342  46.785  46.747  0.00  0.00    -0.233 N 
ATOM     23  H16 <0> d          45.049  47.681  46.972  0.00  0.00     0.174 HD
ATOM     24  H17 <0> d          44.743  46.034  46.875  0.00  0.00     0.174 HD
ATOM     25  C7  <0> d          50.890  49.439  38.116  0.00  0.00     0.252 C 
ATOM     26  O1  <0> d          50.629  48.892  37.062  0.00  0.00    -0.268 OA
ATOM     27  N1  <0> d          50.829  50.781  38.213  0.00  0.00    -0.342 N 
ATOM     28  H7  <0> d          51.037  51.217  39.054  0.00  0.00     0.163 HD
ATOM     29  C8  <0> d          50.446  51.583  37.047  0.00  0.00     0.186 C 
ATOM     30  C9  <0> d          51.645  52.411  36.581  0.00  0.00     0.046 C 
ATOM     31  C10 <0> d          51.723  53.701  37.399  0.00  0.00     0.116 C 
ATOM     32  C11 <0> d          52.964  53.679  38.254  0.00  0.00     0.172 C 
ATOM     33  O2  <0> d          53.774  54.571  38.167  0.00  0.00    -0.648 OA
ATOM     34  O5  <0> d          53.170  52.667  39.113  0.00  0.00    -0.648 OA
ATOM     35  C12 <0> d          49.314  52.506  37.422  0.00  0.00     0.196 C 
ATOM     36  O3  <0> d          48.898  52.522  38.557  0.00  0.00    -0.646 OA
ATOM     37  O6  <0> d          48.769  53.309  36.496  0.00  0.00    -0.646 OA
ENDMDL
MODEL 5
REMARK VINA RESULT:      -9.2      1.186      2.840
ATOM      1  C1  <0> d          51.944  47.511  39.306  0.00  0.00     0.019 A 
ATOM      2  C2  <0> d          51.987  46.594  40.331  0.00  0.00     0.030 A 
ATOM      3  C3  <0> d          52.096  47.026  41.649  0.00  0.00     0.028 A 
ATOM      4  C4  <0> d          52.161  48.387  41.935  0.00  0.00     0.030 A 
ATOM      5  C5  <0> d          52.118  49.309  40.916  0.00  0.00     0.019 A 
ATOM      6  C6  <0> d          52.009  48.878  39.590  0.00  0.00     0.032 A 
ATOM      7  N2  <0> d          52.140  46.097  42.683  0.00  0.00    -0.384 N 
ATOM      8  H12 <0> d          52.247  45.154  42.483  0.00  0.00     0.160 HD
ATOM      9  C13 <0> d          52.023  46.543  44.074  0.00  0.00     0.180 C 
ATOM     10  C14 <0> d          50.570  46.576  44.472  0.00  0.00     0.070 A 
ATOM     11  N4  <0> d          50.198  47.270  45.528  0.00  0.00    -0.241 NA
ATOM     12  C17 <0> d          48.917  47.302  45.873  0.00  0.00     0.174 A 
ATOM     13  C16 <0> d          47.961  46.585  45.118  0.00  0.00     0.202 A 
ATOM     14  C18 <0> d          48.447  48.067  47.040  0.00  0.00     0.292 A 
ATOM     15  N3  <0> d          48.358  45.884  44.056  0.00  0.00    -0.237 NA
ATOM     16  N6  <0> d          46.667  46.628  45.488  0.00  0.00    -0.043 NA
ATOM     17  C15 <0> d          49.634  45.869  43.725  0.00  0.00     0.147 A 
ATOM     18  C19 <0> d          46.270  47.315  46.531  0.00  0.00     0.703 A 
ATOM     19  N5  <0> d          47.122  48.035  47.316  0.00  0.00    -0.152 N 
ATOM     20  H2  <0> d          46.766  48.543  48.100  0.00  0.00     0.187 HD
ATOM     21  O4  <0> d          49.220  48.704  47.731  0.00  0.00    -0.265 OA
ATOM     22  N7  <0> d          44.936  47.311  46.846  0.00  0.00    -0.233 N 
ATOM     23  H16 <0> d          44.276  47.141  46.157  0.00  0.00     0.174 HD
ATOM     24  H17 <0> d          44.654  47.477  47.758  0.00  0.00     0.174 HD
ATOM     25  C7  <0> d          51.957  49.865  38.494  0.00  0.00     0.252 C 
ATOM     26  O1  <0> d          52.716  50.815  38.494  0.00  0.00    -0.268 OA
ATOM     27  N1  <0> d          51.066  49.714  37.495  0.00  0.00    -0.342 N 
ATOM     28  H7  <0> d          50.460  48.956  37.495  0.00  0.00     0.163 HD
ATOM     29  C8  <0> d          51.013  50.693  36.406  0.00  0.00     0.186 C 
ATOM     30  C9  <0> d          49.599  51.270  36.308  0.00  0.00     0.046 C 
ATOM     31  C10 <0> d          49.607  52.724  36.783  0.00  0.00     0.116 C 
ATOM     32  C11 <0> d          48.917  52.820  38.119  0.00  0.00     0.172 C 
ATOM     33  O2  <0> d          48.188  53.754  38.357  0.00  0.00    -0.648 OA
ATOM     34  O5  <0> d          49.112  51.867  39.045  0.00  0.00    -0.648 OA
ATOM     35  C12 <0> d          51.372  50.020  35.106  0.00  0.00     0.196 C 
ATOM     36  O3  <0> d          50.651  50.144  34.143  0.00  0.00    -0.646 OA
ATOM     37  O6  <0> d          52.490  49.284  35.017  0.00  0.00    -0.646 OA
ENDMDL
MODEL 6
REMARK VINA RESULT:      -9.2      1.714      3.005
ATOM      1  C1  <0> d          52.045  47.757  40.258  0.00  0.00     0.019 A 
ATOM      2  C2  <0> d          52.503  47.433  41.515  0.00  0.00     0.030 A 
ATOM      3  C3  <0> d          52.083  48.165  42.621  0.00  0.00     0.028 A 
ATOM      4  C4  <0> d          51.197  49.226  42.460  0.00  0.00     0.030 A 
ATOM      5  C5  <0> d          50.735  49.555  41.207  0.00  0.00     0.019 A 
ATOM      6  C6  <0> d          51.155  48.822  40.093  0.00  0.00     0.032 A 
ATOM      7  N2  <0> d          52.549  47.835  43.889  0.00  0.00    -0.384 N 
ATOM      8  H12 <0> d          53.159  48.431  44.352  0.00  0.00     0.160 HD
ATOM      9  C13 <0> d          52.118  46.588  44.527  0.00  0.00     0.180 C 
ATOM     10  C14 <0> d          50.640  46.653  44.811  0.00  0.00     0.070 A 
ATOM     11  N4  <0> d          50.205  47.327  45.858  0.00  0.00    -0.241 NA
ATOM     12  C17 <0> d          48.902  47.387  46.103  0.00  0.00     0.174 A 
ATOM     13  C16 <0> d          47.989  46.722  45.253  0.00  0.00     0.202 A 
ATOM     14  C18 <0> d          48.364  48.131  47.254  0.00  0.00     0.292 A 
ATOM     15  N3  <0> d          48.448  46.042  44.203  0.00  0.00    -0.237 NA
ATOM     16  N6  <0> d          46.671  46.793  45.523  0.00  0.00    -0.043 NA
ATOM     17  C15 <0> d          49.746  45.997  43.972  0.00  0.00     0.147 A 
ATOM     18  C19 <0> d          46.214  47.460  46.554  0.00  0.00     0.703 A 
ATOM     19  N5  <0> d          47.021  48.130  47.425  0.00  0.00    -0.152 N 
ATOM     20  H2  <0> d          46.619  48.625  48.196  0.00  0.00     0.187 HD
ATOM     21  O4  <0> d          49.098  48.723  48.024  0.00  0.00    -0.265 OA
ATOM     22  N7  <0> d          44.860  47.487  46.765  0.00  0.00    -0.233 N 
ATOM     23  H16 <0> d          44.271  46.966  46.198  0.00  0.00     0.174 HD
ATOM     24  H17 <0> d          44.492  48.026  47.481  0.00  0.00     0.174 HD
ATOM     25  C7  <0> d          50.656  49.168  38.749  0.00  0.00     0.252 C 
ATOM     26  O1  <0> d          49.872  50.087  38.610  0.00  0.00    -0.268 OA
ATOM     27  N1  <0> d          51.069  48.465  37.677  0.00  0.00    -0.342 N 
ATOM     28  H7  <0> d          51.694  47.733  37.788  0.00  0.00     0.163 HD
ATOM     29  C8  <0> d          50.573  48.809  36.341  0.00  0.00     0.186 C 
ATOM     30  C9  <0> d          49.623  47.714  35.852  0.00  0.00     0.046 C 
ATOM     31  C10 <0> d          50.130  46.350  36.323  0.00  0.00     0.116 C 
ATOM     32  C11 <0> d          49.595  46.063  37.702  0.00  0.00     0.172 C 
ATOM     33  O2  <0> d          48.485  46.431  38.008  0.00  0.00    -0.648 OA
ATOM     34  O5  <0> d          50.351  45.399  38.592  0.00  0.00    -0.648 OA
ATOM     35  C12 <0> d          51.736  48.925  35.388  0.00  0.00     0.196 C 
ATOM     36  O3  <0> d          52.867  48.942  35.815  0.00  0.00    -0.646 OA
ATOM     37  O6  <0> d          51.515  49.009  34.067  0.00  0.00    -0.646 OA
ENDMDL
MODEL 7
REMARK VINA RESULT:      -9.0      2.868      8.697
ATOM      1  C1  <0> d          51.762  47.874  43.363  0.00  0.00     0.019 A 
ATOM      2  C2  <0> d          52.284  48.056  42.103  0.00  0.00     0.030 A 
ATOM      3  C3  <0> d          52.082  47.094  41.118  0.00  0.00     0.028 A 
ATOM      4  C4  <0> d          51.350  45.945  41.404  0.00  0.00     0.030 A 
ATOM      5  C5  <0> d          50.825  45.757  42.662  0.00  0.00     0.019 A 
ATOM      6  C6  <0> d          51.027  46.721  43.654  0.00  0.00     0.032 A 
ATOM      7  N2  <0> d          52.611  47.281  39.846  0.00  0.00    -0.384 N 
ATOM      8  H12 <0> d          53.559  47.456  39.735  0.00  0.00     0.160 HD
ATOM      9  C13 <0> d          51.737  47.213  38.671  0.00  0.00     0.180 C 
ATOM     10  C14 <0> d          51.110  48.563  38.434  0.00  0.00     0.070 A 
ATOM     11  N4  <0> d          50.173  49.001  39.251  0.00  0.00    -0.241 NA
ATOM     12  C17 <0> d          49.626  50.192  39.042  0.00  0.00     0.174 A 
ATOM     13  C16 <0> d          50.038  50.979  37.942  0.00  0.00     0.202 A 
ATOM     14  C18 <0> d          48.581  50.731  39.928  0.00  0.00     0.292 A 
ATOM     15  N3  <0> d          50.983  50.516  37.124  0.00  0.00    -0.237 NA
ATOM     16  N6  <0> d          49.467  52.183  37.747  0.00  0.00    -0.043 NA
ATOM     17  C15 <0> d          51.519  49.333  37.350  0.00  0.00     0.147 A 
ATOM     18  C19 <0> d          48.538  52.644  38.548  0.00  0.00     0.703 A 
ATOM     19  N5  <0> d          48.080  51.953  39.631  0.00  0.00    -0.152 N 
ATOM     20  H2  <0> d          47.369  52.352  40.211  0.00  0.00     0.187 HD
ATOM     21  O4  <0> d          48.182  50.102  40.891  0.00  0.00    -0.265 OA
ATOM     22  N7  <0> d          48.003  53.877  38.285  0.00  0.00    -0.233 N 
ATOM     23  H16 <0> d          47.263  54.208  38.817  0.00  0.00     0.174 HD
ATOM     24  H17 <0> d          48.364  54.420  37.568  0.00  0.00     0.174 HD
ATOM     25  C7  <0> d          50.460  46.525  45.002  0.00  0.00     0.252 C 
ATOM     26  O1  <0> d          51.147  46.053  45.887  0.00  0.00    -0.268 OA
ATOM     27  N1  <0> d          49.181  46.867  45.249  0.00  0.00    -0.342 N 
ATOM     28  H7  <0> d          48.634  47.243  44.542  0.00  0.00     0.163 HD
ATOM     29  C8  <0> d          48.617  46.672  46.588  0.00  0.00     0.186 C 
ATOM     30  C9  <0> d          47.229  46.038  46.469  0.00  0.00     0.046 C 
ATOM     31  C10 <0> d          47.044  45.476  45.059  0.00  0.00     0.116 C 
ATOM     32  C11 <0> d          46.855  43.982  45.134  0.00  0.00     0.172 C 
ATOM     33  O2  <0> d          45.793  43.492  44.831  0.00  0.00    -0.648 OA
ATOM     34  O5  <0> d          47.867  43.197  45.539  0.00  0.00    -0.648 OA
ATOM     35  C12 <0> d          48.501  48.005  47.284  0.00  0.00     0.196 C 
ATOM     36  O3  <0> d          49.328  48.332  48.102  0.00  0.00    -0.646 OA
ATOM     37  O6  <0> d          47.482  48.827  46.994  0.00  0.00    -0.646 OA
ENDMDL
MODEL 8
REMARK VINA RESULT:      -8.9      5.730      9.928
ATOM      1  C1  <0> d          46.731  50.444  43.484  0.00  0.00     0.019 A 
ATOM      2  C2  <0> d          45.635  51.269  43.591  0.00  0.00     0.030 A 
ATOM      3  C3  <0> d          44.632  50.981  44.512  0.00  0.00     0.028 A 
ATOM      4  C4  <0> d          44.734  49.858  45.327  0.00  0.00     0.030 A 
ATOM      5  C5  <0> d          45.827  49.029  45.226  0.00  0.00     0.019 A 
ATOM      6  C6  <0> d          46.837  49.315  44.302  0.00  0.00     0.032 A 
ATOM      7  N2  <0> d          43.526  51.817  44.617  0.00  0.00    -0.384 N 
ATOM      8  H12 <0> d          43.546  52.702  44.221  0.00  0.00     0.160 HD
ATOM      9  C13 <0> d          42.328  51.361  45.328  0.00  0.00     0.180 C 
ATOM     10  C14 <0> d          41.360  50.754  44.346  0.00  0.00     0.070 A 
ATOM     11  N4  <0> d          41.559  49.527  43.907  0.00  0.00    -0.241 NA
ATOM     12  C17 <0> d          40.703  48.992  43.045  0.00  0.00     0.174 A 
ATOM     13  C16 <0> d          39.592  49.741  42.592  0.00  0.00     0.202 A 
ATOM     14  C18 <0> d          40.874  47.624  42.530  0.00  0.00     0.292 A 
ATOM     15  N3  <0> d          39.412  50.982  43.043  0.00  0.00    -0.237 NA
ATOM     16  N6  <0> d          38.738  49.181  41.715  0.00  0.00    -0.043 NA
ATOM     17  C15 <0> d          40.270  51.495  43.903  0.00  0.00     0.147 A 
ATOM     18  C19 <0> d          38.909  47.961  41.268  0.00  0.00     0.703 A 
ATOM     19  N5  <0> d          39.952  47.168  41.651  0.00  0.00    -0.152 N 
ATOM     20  H2  <0> d          40.035  46.243  41.279  0.00  0.00     0.187 HD
ATOM     21  O4  <0> d          41.809  46.929  42.881  0.00  0.00    -0.265 OA
ATOM     22  N7  <0> d          37.999  47.458  40.376  0.00  0.00    -0.233 N 
ATOM     23  H16 <0> d          37.153  47.106  40.694  0.00  0.00     0.174 HD
ATOM     24  H17 <0> d          38.200  47.456  39.428  0.00  0.00     0.174 HD
ATOM     25  C7  <0> d          48.013  48.431  44.195  0.00  0.00     0.252 C 
ATOM     26  O1  <0> d          48.847  48.630  43.333  0.00  0.00    -0.268 OA
ATOM     27  N1  <0> d          48.161  47.403  45.052  0.00  0.00    -0.342 N 
ATOM     28  H7  <0> d          47.496  47.245  45.739  0.00  0.00     0.163 HD
ATOM     29  C8  <0> d          49.329  46.524  44.947  0.00  0.00     0.186 C 
ATOM     30  C9  <0> d          48.894  45.160  44.407  0.00  0.00     0.046 C 
ATOM     31  C10 <0> d          48.269  44.339  45.536  0.00  0.00     0.116 C 
ATOM     32  C11 <0> d          46.767  44.397  45.428  0.00  0.00     0.172 C 
ATOM     33  O2  <0> d          46.238  45.326  44.864  0.00  0.00    -0.648 OA
ATOM     34  O5  <0> d          46.017  43.417  45.958  0.00  0.00    -0.648 OA
ATOM     35  C12 <0> d          49.951  46.348  46.309  0.00  0.00     0.196 C 
ATOM     36  O3  <0> d          50.994  45.749  46.424  0.00  0.00    -0.646 OA
ATOM     37  O6  <0> d          49.346  46.857  47.394  0.00  0.00    -0.646 OA
ENDMDL
MODEL 9
REMARK VINA RESULT:      -8.9      6.751     10.989
ATOM      1  C1  <0> d          44.385  48.694  44.958  0.00  0.00     0.019 A 
ATOM      2  C2  <0> d          43.104  49.196  44.982  0.00  0.00     0.030 A 
ATOM      3  C3  <0> d          42.893  50.572  45.002  0.00  0.00     0.028 A 
ATOM      4  C4  <0> d          43.978  51.444  44.997  0.00  0.00     0.030 A 
ATOM      5  C5  <0> d          45.261  50.949  44.973  0.00  0.00     0.019 A 
ATOM      6  C6  <0> d          45.476  49.567  44.953  0.00  0.00     0.032 A 
ATOM      7  N2  <0> d          41.598  51.076  45.027  0.00  0.00    -0.384 N 
ATOM      8  H12 <0> d          41.042  50.948  45.812  0.00  0.00     0.160 HD
ATOM      9  C13 <0> d          41.071  51.800  43.867  0.00  0.00     0.180 C 
ATOM     10  C14 <0> d          39.870  51.070  43.322  0.00  0.00     0.070 A 
ATOM     11  N4  <0> d          40.039  49.976  42.609  0.00  0.00    -0.241 NA
ATOM     12  C17 <0> d          38.980  49.332  42.134  0.00  0.00     0.174 A 
ATOM     13  C16 <0> d          37.679  49.827  42.384  0.00  0.00     0.202 A 
ATOM     14  C18 <0> d          39.113  48.102  41.337  0.00  0.00     0.292 A 
ATOM     15  N3  <0> d          37.529  50.939  43.103  0.00  0.00    -0.237 NA
ATOM     16  N6  <0> d          36.618  49.160  41.890  0.00  0.00    -0.043 NA
ATOM     17  C15 <0> d          38.593  51.562  43.571  0.00  0.00     0.147 A 
ATOM     18  C19 <0> d          36.759  48.066  41.182  0.00  0.00     0.703 A 
ATOM     19  N5  <0> d          37.975  47.519  40.893  0.00  0.00    -0.152 N 
ATOM     20  H2  <0> d          38.026  46.681  40.349  0.00  0.00     0.187 HD
ATOM     21  O4  <0> d          40.205  47.625  41.087  0.00  0.00    -0.265 OA
ATOM     22  N7  <0> d          35.633  47.443  40.712  0.00  0.00    -0.233 N 
ATOM     23  H16 <0> d          34.862  47.337  41.289  0.00  0.00     0.174 HD
ATOM     24  H17 <0> d          35.608  47.110  39.802  0.00  0.00     0.174 HD
ATOM     25  C7  <0> d          46.851  49.034  44.921  0.00  0.00     0.252 C 
ATOM     26  O1  <0> d          47.688  49.551  44.207  0.00  0.00    -0.268 OA
ATOM     27  N1  <0> d          47.178  47.971  45.682  0.00  0.00    -0.342 N 
ATOM     28  H7  <0> d          46.510  47.558  46.251  0.00  0.00     0.163 HD
ATOM     29  C8  <0> d          48.543  47.440  45.651  0.00  0.00     0.186 C 
ATOM     30  C9  <0> d          48.525  46.018  45.086  0.00  0.00     0.046 C 
ATOM     31  C10 <0> d          47.345  45.248  45.680  0.00  0.00     0.116 C 
ATOM     32  C11 <0> d          47.324  43.850  45.118  0.00  0.00     0.172 C 
ATOM     33  O2  <0> d          48.085  43.015  45.547  0.00  0.00    -0.648 OA
ATOM     34  O5  <0> d          46.459  43.532  44.141  0.00  0.00    -0.648 OA
ATOM     35  C12 <0> d          49.106  47.417  47.050  0.00  0.00     0.196 C 
ATOM     36  O3  <0> d          48.891  48.338  47.803  0.00  0.00    -0.646 OA
ATOM     37  O6  <0> d          49.844  46.373  47.459  0.00  0.00    -0.646 OA
ENDMDL
MODEL 10
REMARK VINA RESULT:      -8.8      7.101     11.080
ATOM      1  C1  <0> d          45.044  51.460  44.790  0.00  0.00     0.019 A 
ATOM      2  C2  <0> d          43.979  52.298  45.029  0.00  0.00     0.030 A 
ATOM      3  C3  <0> d          42.752  51.772  45.422  0.00  0.00     0.028 A 
ATOM      4  C4  <0> d          42.599  50.396  45.576  0.00  0.00     0.030 A 
ATOM      5  C5  <0> d          43.660  49.554  45.339  0.00  0.00     0.019 A 
ATOM      6  C6  <0> d          44.894  50.079  44.944  0.00  0.00     0.032 A 
ATOM      7  N2  <0> d          41.677  52.620  45.661  0.00  0.00    -0.384 N 
ATOM      8  H12 <0> d          41.831  53.511  46.012  0.00  0.00     0.160 HD
ATOM      9  C13 <0> d          40.311  52.169  45.383  0.00  0.00     0.180 C 
ATOM     10  C14 <0> d          40.032  52.289  43.907  0.00  0.00     0.070 A 
ATOM     11  N4  <0> d          39.742  51.211  43.207  0.00  0.00    -0.241 NA
ATOM     12  C17 <0> d          39.492  51.320  41.909  0.00  0.00     0.174 A 
ATOM     13  C16 <0> d          39.548  52.585  41.280  0.00  0.00     0.202 A 
ATOM     14  C18 <0> d          39.157  50.149  41.083  0.00  0.00     0.292 A 
ATOM     15  N3  <0> d          39.848  53.664  42.003  0.00  0.00    -0.237 NA
ATOM     16  N6  <0> d          39.294  52.673  39.960  0.00  0.00    -0.043 NA
ATOM     17  C15 <0> d          40.089  53.536  43.294  0.00  0.00     0.147 A 
ATOM     18  C19 <0> d          38.999  51.617  39.243  0.00  0.00     0.703 A 
ATOM     19  N5  <0> d          38.923  50.360  39.766  0.00  0.00    -0.152 N 
ATOM     20  H2  <0> d          38.692  49.588  39.173  0.00  0.00     0.187 HD
ATOM     21  O4  <0> d          39.093  49.033  41.564  0.00  0.00    -0.265 OA
ATOM     22  N7  <0> d          38.753  51.784  37.905  0.00  0.00    -0.233 N 
ATOM     23  H16 <0> d          38.584  51.013  37.344  0.00  0.00     0.174 HD
ATOM     24  H17 <0> d          38.749  52.674  37.521  0.00  0.00     0.174 HD
ATOM     25  C7  <0> d          46.036  49.178  44.696  0.00  0.00     0.252 C 
ATOM     26  O1  <0> d          46.386  48.939  43.556  0.00  0.00    -0.268 OA
ATOM     27  N1  <0> d          46.688  48.619  45.734  0.00  0.00    -0.342 N 
ATOM     28  H7  <0> d          46.409  48.809  46.642  0.00  0.00     0.163 HD
ATOM     29  C8  <0> d          47.822  47.723  45.488  0.00  0.00     0.186 C 
ATOM     30  C9  <0> d          47.502  46.332  46.038  0.00  0.00     0.046 C 
ATOM     31  C10 <0> d          48.370  45.291  45.331  0.00  0.00     0.116 C 
ATOM     32  C11 <0> d          47.565  44.038  45.099  0.00  0.00     0.172 C 
ATOM     33  O2  <0> d          46.504  44.100  44.523  0.00  0.00    -0.648 OA
ATOM     34  O5  <0> d          48.026  42.854  45.532  0.00  0.00    -0.648 OA
ATOM     35  C12 <0> d          49.049  48.265  46.178  0.00  0.00     0.196 C 
ATOM     36  O3  <0> d          49.786  49.023  45.592  0.00  0.00    -0.646 OA
ATOM     37  O6  <0> d          49.322  47.905  47.442  0.00  0.00    -0.646 OA
ENDMDL
