MODEL 1
REMARK VINA RESULT:      -9.4      0.000      0.000
ATOM      1  C1  <0> d          50.523  48.182  39.619  0.00  0.00     0.021 C 
ATOM      2  C2  <0> d          51.186  48.836  40.830  0.00  0.00    -0.012 C 
ATOM      3  C3  <0> d          52.370  47.964  41.280  0.00  0.00     0.022 C 
ATOM      4  C4  <0> d          51.888  46.567  41.663  0.00  0.00     0.084 C 
ATOM      5  C5  <0> d          50.775  46.665  42.671  0.00  0.00     0.149 C 
ATOM      6  O1  <0> d          50.534  45.718  43.395  0.00  0.00    -0.293 OA
ATOM      7  C6  <0> d          50.018  47.838  42.794  0.00  0.00     0.058 C 
ATOM      8  C7  <0> d          50.189  48.894  41.961  0.00  0.00    -0.046 C 
ATOM      9  C8  <0> d          49.375  50.090  42.157  0.00  0.00     0.004 C 
ATOM     10  C9  <0> d          49.565  51.178  41.431  0.00  0.00    -0.021 C 
ATOM     11  C10 <0> d          50.645  51.306  40.394  0.00  0.00     0.018 C 
ATOM     12  C11 <0> d          51.709  50.230  40.508  0.00  0.00     0.006 C 
ATOM     13  C12 <0> d          52.697  50.210  39.353  0.00  0.00     0.007 C 
ATOM     14  C13 <0> d          52.091  50.418  37.963  0.00  0.00     0.013 C 
ATOM     15  C14 <0> d          51.179  51.621  37.976  0.00  0.00    -0.009 C 
ATOM     16  C15 <0> d          50.057  51.365  39.008  0.00  0.00     0.005 C 
ATOM     17  C16 <0> d          49.102  52.538  38.734  0.00  0.00     0.009 C 
ATOM     18  C17 <0> d          49.116  52.653  37.187  0.00  0.00     0.039 C 
ATOM     19  C18 <0> d          50.395  51.926  36.698  0.00  0.00     0.066 C 
ATOM     20  C22 <0> d          51.989  52.874  38.334  0.00  0.00     0.019 C 
ATOM     21  C19 <0> d          50.023  50.653  35.945  0.00  0.00     0.049 C 
ATOM     22  C20 <0> d          50.742  50.630  34.593  0.00  0.00     0.116 C 
ATOM     23  C21 <0> d          51.631  49.416  34.517  0.00  0.00     0.172 C 
ATOM     24  O2  <0> d          51.160  48.340  34.237  0.00  0.00    -0.648 OA
ATOM     25  O4  <0> d          52.946  49.532  34.759  0.00  0.00    -0.648 OA
ATOM     26  O3  <0> d          51.162  52.794  35.858  0.00  0.00    -0.389 OA
ATOM     27  H26 <0> d          50.785  53.680  35.762  0.00  0.00     0.210 HD
ENDMDL
MODEL 2
REMARK VINA RESULT:      -9.4      1.843      3.867
ATOM      1  C1  <0> d          51.947  48.714  41.012  0.00  0.00     0.021 C 
ATOM      2  C2  <0> d          50.810  47.718  41.239  0.00  0.00    -0.012 C 
ATOM      3  C3  <0> d          50.122  48.045  42.575  0.00  0.00     0.022 C 
ATOM      4  C4  <0> d          51.119  47.943  43.727  0.00  0.00     0.084 C 
ATOM      5  C5  <0> d          51.805  46.604  43.697  0.00  0.00     0.149 C 
ATOM      6  O1  <0> d          52.309  46.164  44.713  0.00  0.00    -0.293 OA
ATOM      7  C6  <0> d          51.863  45.853  42.515  0.00  0.00     0.058 C 
ATOM      8  C7  <0> d          51.390  46.329  41.337  0.00  0.00    -0.046 C 
ATOM      9  C8  <0> d          51.469  45.484  40.150  0.00  0.00     0.004 C 
ATOM     10  C9  <0> d          50.943  45.865  38.998  0.00  0.00    -0.021 C 
ATOM     11  C10 <0> d          50.184  47.148  38.817  0.00  0.00     0.018 C 
ATOM     12  C11 <0> d          49.767  47.783  40.131  0.00  0.00     0.006 C 
ATOM     13  C12 <0> d          49.182  49.179  39.987  0.00  0.00     0.007 C 
ATOM     14  C13 <0> d          49.896  50.094  38.990  0.00  0.00     0.013 C 
ATOM     15  C14 <0> d          50.095  49.369  37.680  0.00  0.00    -0.009 C 
ATOM     16  C15 <0> d          50.952  48.111  37.950  0.00  0.00     0.005 C 
ATOM     17  C16 <0> d          51.264  47.629  36.524  0.00  0.00     0.009 C 
ATOM     18  C17 <0> d          51.528  48.949  35.753  0.00  0.00     0.039 C 
ATOM     19  C18 <0> d          50.891  50.089  36.589  0.00  0.00     0.066 C 
ATOM     20  C22 <0> d          48.729  48.995  37.089  0.00  0.00     0.019 C 
ATOM     21  C19 <0> d          51.977  50.983  37.177  0.00  0.00     0.049 C 
ATOM     22  C20 <0> d          51.613  52.451  36.940  0.00  0.00     0.116 C 
ATOM     23  C21 <0> d          52.481  53.329  37.803  0.00  0.00     0.172 C 
ATOM     24  O2  <0> d          52.794  54.431  37.421  0.00  0.00    -0.648 OA
ATOM     25  O4  <0> d          52.905  52.886  38.998  0.00  0.00    -0.648 OA
ATOM     26  O3  <0> d          50.002  50.857  35.772  0.00  0.00    -0.389 OA
ATOM     27  H26 <0> d          49.670  50.381  34.999  0.00  0.00     0.210 HD
ENDMDL
MODEL 3
REMARK VINA RESULT:      -9.3      2.616      6.980
ATOM      1  C1  <0> d          49.716  48.444  39.167  0.00  0.00     0.021 C 
ATOM      2  C2  <0> d          51.076  47.884  38.752  0.00  0.00    -0.012 C 
ATOM      3  C3  <0> d          51.722  48.845  37.740  0.00  0.00     0.022 C 
ATOM      4  C4  <0> d          50.839  48.990  36.504  0.00  0.00     0.084 C 
ATOM      5  C5  <0> d          50.510  47.632  35.943  0.00  0.00     0.149 C 
ATOM      6  O1  <0> d          50.182  47.526  34.777  0.00  0.00    -0.293 OA
ATOM      7  C6  <0> d          50.587  46.486  36.746  0.00  0.00     0.058 C 
ATOM      8  C7  <0> d          50.869  46.554  38.071  0.00  0.00    -0.046 C 
ATOM      9  C8  <0> d          50.947  45.318  38.842  0.00  0.00     0.004 C 
ATOM     10  C9  <0> d          51.306  45.322  40.115  0.00  0.00    -0.021 C 
ATOM     11  C10 <0> d          51.709  46.563  40.859  0.00  0.00     0.018 C 
ATOM     12  C11 <0> d          52.015  47.733  39.942  0.00  0.00     0.006 C 
ATOM     13  C12 <0> d          52.223  49.052  40.668  0.00  0.00     0.007 C 
ATOM     14  C13 <0> d          51.256  49.330  41.820  0.00  0.00     0.013 C 
ATOM     15  C14 <0> d          51.184  48.128  42.731  0.00  0.00    -0.009 C 
ATOM     16  C15 <0> d          50.683  46.923  41.901  0.00  0.00     0.005 C 
ATOM     17  C16 <0> d          50.435  45.870  42.992  0.00  0.00     0.009 C 
ATOM     18  C17 <0> d          49.811  46.695  44.148  0.00  0.00     0.039 C 
ATOM     19  C18 <0> d          50.181  48.178  43.887  0.00  0.00     0.066 C 
ATOM     20  C22 <0> d          52.569  47.854  43.330  0.00  0.00     0.019 C 
ATOM     21  C19 <0> d          48.935  48.976  43.521  0.00  0.00     0.049 C 
ATOM     22  C20 <0> d          48.700  50.065  44.571  0.00  0.00     0.116 C 
ATOM     23  C21 <0> d          48.935  51.418  43.953  0.00  0.00     0.172 C 
ATOM     24  O2  <0> d          48.491  51.667  42.857  0.00  0.00    -0.648 OA
ATOM     25  O4  <0> d          49.636  52.348  44.620  0.00  0.00    -0.648 OA
ATOM     26  O3  <0> d          50.809  48.737  45.044  0.00  0.00    -0.389 OA
ATOM     27  H26 <0> d          50.487  49.619  45.277  0.00  0.00     0.210 HD
ENDMDL
MODEL 4
REMARK VINA RESULT:      -9.0      5.929      9.059
ATOM      1  C1  <0> d          44.539  49.922  44.978  0.00  0.00     0.021 C 
ATOM      2  C2  <0> d          44.236  51.269  44.323  0.00  0.00    -0.012 C 
ATOM      3  C3  <0> d          43.200  52.016  45.181  0.00  0.00     0.022 C 
ATOM      4  C4  <0> d          41.911  51.205  45.286  0.00  0.00     0.084 C 
ATOM      5  C5  <0> d          41.423  50.834  43.911  0.00  0.00     0.149 C 
ATOM      6  O1  <0> d          40.250  50.560  43.744  0.00  0.00    -0.293 OA
ATOM      7  C6  <0> d          42.301  50.809  42.820  0.00  0.00     0.058 C 
ATOM      8  C7  <0> d          43.632  51.026  42.963  0.00  0.00    -0.046 C 
ATOM      9  C8  <0> d          44.485  51.000  41.779  0.00  0.00     0.004 C 
ATOM     10  C9  <0> d          45.771  51.293  41.851  0.00  0.00    -0.021 C 
ATOM     11  C10 <0> d          46.454  51.724  43.118  0.00  0.00     0.018 C 
ATOM     12  C11 <0> d          45.482  52.137  44.207  0.00  0.00     0.006 C 
ATOM     13  C12 <0> d          46.131  52.378  45.560  0.00  0.00     0.007 C 
ATOM     14  C13 <0> d          47.209  51.370  45.963  0.00  0.00     0.013 C 
ATOM     15  C14 <0> d          48.191  51.188  44.830  0.00  0.00    -0.009 C 
ATOM     16  C15 <0> d          47.415  50.667  43.598  0.00  0.00     0.005 C 
ATOM     17  C16 <0> d          48.556  50.308  42.634  0.00  0.00     0.009 C 
ATOM     18  C17 <0> d          49.621  49.672  43.565  0.00  0.00     0.039 C 
ATOM     19  C18 <0> d          49.285  50.133  45.006  0.00  0.00     0.066 C 
ATOM     20  C22 <0> d          48.880  52.525  44.528  0.00  0.00     0.019 C 
ATOM     21  C19 <0> d          48.802  48.950  45.839  0.00  0.00     0.049 C 
ATOM     22  C20 <0> d          49.510  47.675  45.375  0.00  0.00     0.116 C 
ATOM     23  C21 <0> d          49.577  46.694  46.516  0.00  0.00     0.172 C 
ATOM     24  O2  <0> d          48.769  46.753  47.412  0.00  0.00    -0.648 OA
ATOM     25  O4  <0> d          50.533  45.752  46.535  0.00  0.00    -0.648 OA
ATOM     26  O3  <0> d          50.436  50.730  45.611  0.00  0.00    -0.389 OA
ATOM     27  H26 <0> d          50.494  51.687  45.484  0.00  0.00     0.210 HD
ENDMDL
MODEL 5
REMARK VINA RESULT:      -8.8      2.178      4.067
ATOM      1  C1  <0> d          50.095  50.080  41.185  0.00  0.00     0.021 C 
ATOM      2  C2  <0> d          49.864  48.761  41.921  0.00  0.00    -0.012 C 
ATOM      3  C3  <0> d          48.646  48.915  42.847  0.00  0.00     0.022 C 
ATOM      4  C4  <0> d          48.887  50.025  43.866  0.00  0.00     0.084 C 
ATOM      5  C5  <0> d          50.186  49.788  44.588  0.00  0.00     0.149 C 
ATOM      6  O1  <0> d          50.368  50.292  45.680  0.00  0.00    -0.293 OA
ATOM      7  C6  <0> d          51.185  48.984  44.024  0.00  0.00     0.058 C 
ATOM      8  C7  <0> d          51.070  48.463  42.777  0.00  0.00    -0.046 C 
ATOM      9  C8  <0> d          52.144  47.622  42.259  0.00  0.00     0.004 C 
ATOM     10  C9  <0> d          52.041  47.018  41.088  0.00  0.00    -0.021 C 
ATOM     11  C10 <0> d          50.817  47.093  40.220  0.00  0.00     0.018 C 
ATOM     12  C11 <0> d          49.597  47.612  40.958  0.00  0.00     0.006 C 
ATOM     13  C12 <0> d          48.402  47.893  40.060  0.00  0.00     0.007 C 
ATOM     14  C13 <0> d          48.725  48.570  38.726  0.00  0.00     0.013 C 
ATOM     15  C14 <0> d          49.855  47.840  38.041  0.00  0.00    -0.009 C 
ATOM     16  C15 <0> d          51.092  47.885  38.968  0.00  0.00     0.005 C 
ATOM     17  C16 <0> d          52.194  47.332  38.052  0.00  0.00     0.009 C 
ATOM     18  C17 <0> d          51.873  47.978  36.679  0.00  0.00     0.039 C 
ATOM     19  C18 <0> d          50.393  48.436  36.738  0.00  0.00     0.066 C 
ATOM     20  C22 <0> d          49.430  46.395  37.750  0.00  0.00     0.019 C 
ATOM     21  C19 <0> d          50.311  49.959  36.735  0.00  0.00     0.049 C 
ATOM     22  C20 <0> d          51.489  50.532  35.944  0.00  0.00     0.116 C 
ATOM     23  C21 <0> d          51.162  51.935  35.503  0.00  0.00     0.172 C 
ATOM     24  O2  <0> d          50.691  52.129  34.407  0.00  0.00    -0.648 OA
ATOM     25  O4  <0> d          51.393  52.969  36.328  0.00  0.00    -0.648 OA
ATOM     26  O3  <0> d          49.668  47.897  35.628  0.00  0.00    -0.389 OA
ATOM     27  H26 <0> d          50.037  48.136  34.766  0.00  0.00     0.210 HD
ENDMDL
MODEL 6
REMARK VINA RESULT:      -8.7      1.875      2.297
ATOM      1  C1  <0> d          51.218  47.243  40.524  0.00  0.00     0.021 C 
ATOM      2  C2  <0> d          50.896  48.309  41.570  0.00  0.00    -0.012 C 
ATOM      3  C3  <0> d          51.930  48.221  42.705  0.00  0.00     0.022 C 
ATOM      4  C4  <0> d          51.886  46.844  43.360  0.00  0.00     0.084 C 
ATOM      5  C5  <0> d          50.478  46.518  43.781  0.00  0.00     0.149 C 
ATOM      6  O1  <0> d          50.287  45.694  44.655  0.00  0.00    -0.293 OA
ATOM      7  C6  <0> d          49.384  47.160  43.186  0.00  0.00     0.058 C 
ATOM      8  C7  <0> d          49.534  48.026  42.153  0.00  0.00    -0.046 C 
ATOM      9  C8  <0> d          48.350  48.670  41.592  0.00  0.00     0.004 C 
ATOM     10  C9  <0> d          48.450  49.588  40.646  0.00  0.00    -0.021 C 
ATOM     11  C10 <0> d          49.760  50.085  40.107  0.00  0.00     0.018 C 
ATOM     12  C11 <0> d          50.943  49.714  40.982  0.00  0.00     0.006 C 
ATOM     13  C12 <0> d          52.296  50.022  40.361  0.00  0.00     0.007 C 
ATOM     14  C13 <0> d          52.428  49.694  38.873  0.00  0.00     0.013 C 
ATOM     15  C14 <0> d          51.254  50.268  38.115  0.00  0.00    -0.009 C 
ATOM     16  C15 <0> d          49.960  49.640  38.681  0.00  0.00     0.005 C 
ATOM     17  C16 <0> d          48.907  50.125  37.673  0.00  0.00     0.009 C 
ATOM     18  C17 <0> d          49.637  50.004  36.310  0.00  0.00     0.039 C 
ATOM     19  C18 <0> d          51.155  49.950  36.621  0.00  0.00     0.066 C 
ATOM     20  C22 <0> d          51.244  51.795  38.266  0.00  0.00     0.019 C 
ATOM     21  C19 <0> d          51.712  48.568  36.298  0.00  0.00     0.049 C 
ATOM     22  C20 <0> d          50.567  47.642  35.878  0.00  0.00     0.116 C 
ATOM     23  C21 <0> d          50.429  46.527  36.882  0.00  0.00     0.172 C 
ATOM     24  O2  <0> d          51.381  45.836  37.153  0.00  0.00    -0.648 OA
ATOM     25  O4  <0> d          49.246  46.304  37.477  0.00  0.00    -0.648 OA
ATOM     26  O3  <0> d          51.845  50.953  35.869  0.00  0.00    -0.389 OA
ATOM     27  H26 <0> d          52.728  51.159  36.207  0.00  0.00     0.210 HD
ENDMDL
MODEL 7
REMARK VINA RESULT:      -8.6     11.670     13.910
ATOM      1  C1  <0> d          38.217  53.516  45.552  0.00  0.00     0.021 C 
ATOM      2  C2  <0> d          39.122  53.033  46.685  0.00  0.00    -0.012 C 
ATOM      3  C3  <0> d          38.253  52.705  47.910  0.00  0.00     0.022 C 
ATOM      4  C4  <0> d          37.490  53.945  48.369  0.00  0.00     0.084 C 
ATOM      5  C5  <0> d          38.444  55.090  48.577  0.00  0.00     0.149 C 
ATOM      6  O1  <0> d          38.129  56.011  49.307  0.00  0.00    -0.293 OA
ATOM      7  C6  <0> d          39.696  55.104  47.948  0.00  0.00     0.058 C 
ATOM      8  C7  <0> d          40.067  54.147  47.063  0.00  0.00    -0.046 C 
ATOM      9  C8  <0> d          41.393  54.217  46.457  0.00  0.00     0.004 C 
ATOM     10  C9  <0> d          41.836  53.262  45.658  0.00  0.00    -0.021 C 
ATOM     11  C10 <0> d          41.060  52.015  45.345  0.00  0.00     0.018 C 
ATOM     12  C11 <0> d          39.900  51.782  46.296  0.00  0.00     0.006 C 
ATOM     13  C12 <0> d          38.976  50.648  45.883  0.00  0.00     0.007 C 
ATOM     14  C13 <0> d          38.652  50.573  44.390  0.00  0.00     0.013 C 
ATOM     15  C14 <0> d          39.925  50.658  43.583  0.00  0.00    -0.009 C 
ATOM     16  C15 <0> d          40.612  52.005  43.907  0.00  0.00     0.005 C 
ATOM     17  C16 <0> d          41.732  52.049  42.855  0.00  0.00     0.009 C 
ATOM     18  C17 <0> d          41.047  51.486  41.582  0.00  0.00     0.039 C 
ATOM     19  C18 <0> d          39.793  50.708  42.059  0.00  0.00     0.066 C 
ATOM     20  C22 <0> d          40.834  49.472  43.932  0.00  0.00     0.019 C 
ATOM     21  C19 <0> d          38.525  51.434  41.624  0.00  0.00     0.049 C 
ATOM     22  C20 <0> d          37.622  50.468  40.853  0.00  0.00     0.116 C 
ATOM     23  C21 <0> d          36.295  50.351  41.557  0.00  0.00     0.172 C 
ATOM     24  O2  <0> d          35.487  51.245  41.474  0.00  0.00    -0.648 OA
ATOM     25  O4  <0> d          36.011  49.253  42.275  0.00  0.00    -0.648 OA
ATOM     26  O3  <0> d          39.811  49.378  41.531  0.00  0.00    -0.389 OA
ATOM     27  H26 <0> d          40.692  49.069  41.279  0.00  0.00     0.210 HD
ENDMDL
MODEL 8
REMARK VINA RESULT:      -8.6      1.859      6.557
ATOM      1  C1  <0> d          51.322  48.529  39.069  0.00  0.00     0.021 C 
ATOM      2  C2  <0> d          50.438  49.213  38.027  0.00  0.00    -0.012 C 
ATOM      3  C3  <0> d          50.314  48.293  36.800  0.00  0.00     0.022 C 
ATOM      4  C4  <0> d          51.690  48.024  36.195  0.00  0.00     0.084 C 
ATOM      5  C5  <0> d          52.396  49.325  35.924  0.00  0.00     0.149 C 
ATOM      6  O1  <0> d          53.289  49.364  35.098  0.00  0.00    -0.293 OA
ATOM      7  C6  <0> d          52.032  50.496  36.603  0.00  0.00     0.058 C 
ATOM      8  C7  <0> d          51.101  50.495  37.588  0.00  0.00    -0.046 C 
ATOM      9  C8  <0> d          50.761  51.754  38.242  0.00  0.00     0.004 C 
ATOM     10  C9  <0> d          49.797  51.823  39.145  0.00  0.00    -0.021 C 
ATOM     11  C10 <0> d          48.944  50.651  39.538  0.00  0.00     0.018 C 
ATOM     12  C11 <0> d          49.040  49.492  38.563  0.00  0.00     0.006 C 
ATOM     13  C12 <0> d          48.353  48.222  39.039  0.00  0.00     0.007 C 
ATOM     14  C13 <0> d          48.551  47.880  40.517  0.00  0.00     0.013 C 
ATOM     15  C14 <0> d          48.263  49.095  41.367  0.00  0.00    -0.009 C 
ATOM     16  C15 <0> d          49.240  50.218  40.950  0.00  0.00     0.005 C 
ATOM     17  C16 <0> d          48.994  51.272  42.041  0.00  0.00     0.009 C 
ATOM     18  C17 <0> d          48.841  50.422  43.329  0.00  0.00     0.039 C 
ATOM     19  C18 <0> d          48.512  48.977  42.873  0.00  0.00     0.066 C 
ATOM     20  C22 <0> d          46.804  49.525  41.170  0.00  0.00     0.019 C 
ATOM     21  C19 <0> d          49.679  48.046  43.183  0.00  0.00     0.049 C 
ATOM     22  C20 <0> d          49.211  46.936  44.127  0.00  0.00     0.116 C 
ATOM     23  C21 <0> d          49.250  45.614  43.406  0.00  0.00     0.172 C 
ATOM     24  O2  <0> d          50.237  45.292  42.789  0.00  0.00    -0.648 OA
ATOM     25  O4  <0> d          48.188  44.794  43.451  0.00  0.00    -0.648 OA
ATOM     26  O3  <0> d          47.323  48.517  43.523  0.00  0.00    -0.389 OA
ATOM     27  H26 <0> d          46.571  49.119  43.437  0.00  0.00     0.210 HD
ENDMDL
MODEL 9
REMARK VINA RESULT:      -8.5      2.328      7.378
ATOM      1  C1  <0> d          49.589  47.505  39.545  0.00  0.00     0.021 C 
ATOM      2  C2  <0> d          49.814  48.990  39.262  0.00  0.00    -0.012 C 
ATOM      3  C3  <0> d          48.753  49.472  38.259  0.00  0.00     0.022 C 
ATOM      4  C4  <0> d          48.860  48.689  36.953  0.00  0.00     0.084 C 
ATOM      5  C5  <0> d          50.271  48.745  36.434  0.00  0.00     0.149 C 
ATOM      6  O1  <0> d          50.485  48.553  35.252  0.00  0.00    -0.293 OA
ATOM      7  C6  <0> d          51.342  49.024  37.293  0.00  0.00     0.058 C 
ATOM      8  C7  <0> d          51.172  49.167  38.630  0.00  0.00    -0.046 C 
ATOM      9  C8  <0> d          52.331  49.473  39.463  0.00  0.00     0.004 C 
ATOM     10  C9  <0> d          52.205  49.709  40.757  0.00  0.00    -0.021 C 
ATOM     11  C10 <0> d          50.884  49.738  41.471  0.00  0.00     0.018 C 
ATOM     12  C11 <0> d          49.700  49.832  40.526  0.00  0.00     0.006 C 
ATOM     13  C12 <0> d          48.350  49.656  41.204  0.00  0.00     0.007 C 
ATOM     14  C13 <0> d          48.284  48.555  42.264  0.00  0.00     0.013 C 
ATOM     15  C14 <0> d          49.443  48.694  43.222  0.00  0.00    -0.009 C 
ATOM     16  C15 <0> d          50.755  48.570  42.414  0.00  0.00     0.005 C 
ATOM     17  C16 <0> d          51.807  48.489  43.530  0.00  0.00     0.009 C 
ATOM     18  C17 <0> d          51.127  47.589  44.596  0.00  0.00     0.039 C 
ATOM     19  C18 <0> d          49.607  47.614  44.294  0.00  0.00     0.066 C 
ATOM     20  C22 <0> d          49.356  50.049  43.937  0.00  0.00     0.019 C 
ATOM     21  C19 <0> d          49.145  46.249  43.797  0.00  0.00     0.049 C 
ATOM     22  C20 <0> d          48.892  45.328  44.993  0.00  0.00     0.116 C 
ATOM     23  C21 <0> d          48.029  44.171  44.563  0.00  0.00     0.172 C 
ATOM     24  O2  <0> d          47.426  44.223  43.518  0.00  0.00    -0.648 OA
ATOM     25  O4  <0> d          47.931  43.082  45.342  0.00  0.00    -0.648 OA
ATOM     26  O3  <0> d          48.880  47.988  45.469  0.00  0.00    -0.389 OA
ATOM     27  H26 <0> d          48.638  47.241  46.034  0.00  0.00     0.210 HD
ENDMDL
MODEL 10
REMARK VINA RESULT:      -8.4      2.380      3.439
ATOM      1  C1  <0> d          49.586  46.876  42.868  0.00  0.00     0.021 C 
ATOM      2  C2  <0> d          50.245  47.911  43.778  0.00  0.00    -0.012 C 
ATOM      3  C3  <0> d          51.094  47.179  44.831  0.00  0.00     0.022 C 
ATOM      4  C4  <0> d          50.218  46.254  45.673  0.00  0.00     0.084 C 
ATOM      5  C5  <0> d          49.055  47.023  46.241  0.00  0.00     0.149 C 
ATOM      6  O1  <0> d          48.487  46.606  47.233  0.00  0.00    -0.293 OA
ATOM      7  C6  <0> d          48.625  48.217  45.649  0.00  0.00     0.058 C 
ATOM      8  C7  <0> d          49.168  48.685  44.498  0.00  0.00    -0.046 C 
ATOM      9  C8  <0> d          48.681  49.945  43.945  0.00  0.00     0.004 C 
ATOM     10  C9  <0> d          49.237  50.489  42.877  0.00  0.00    -0.021 C 
ATOM     11  C10 <0> d          50.430  49.906  42.175  0.00  0.00     0.018 C 
ATOM     12  C11 <0> d          51.151  48.856  43.000  0.00  0.00     0.006 C 
ATOM     13  C12 <0> d          52.233  48.105  42.240  0.00  0.00     0.007 C 
ATOM     14  C13 <0> d          51.877  47.710  40.806  0.00  0.00     0.013 C 
ATOM     15  C14 <0> d          51.319  48.904  40.068  0.00  0.00    -0.009 C 
ATOM     16  C15 <0> d          50.052  49.383  40.813  0.00  0.00     0.005 C 
ATOM     17  C16 <0> d          49.480  50.418  39.832  0.00  0.00     0.009 C 
ATOM     18  C17 <0> d          49.712  49.759  38.446  0.00  0.00     0.039 C 
ATOM     19  C18 <0> d          50.805  48.677  38.645  0.00  0.00     0.066 C 
ATOM     20  C22 <0> d          52.380  50.010  40.008  0.00  0.00     0.019 C 
ATOM     21  C19 <0> d          50.206  47.285  38.475  0.00  0.00     0.049 C 
ATOM     22  C20 <0> d          49.230  47.290  37.296  0.00  0.00     0.116 C 
ATOM     23  C21 <0> d          49.979  46.994  36.022  0.00  0.00     0.172 C 
ATOM     24  O2  <0> d          50.305  45.860  35.764  0.00  0.00    -0.648 OA
ATOM     25  O4  <0> d          50.282  47.990  35.175  0.00  0.00    -0.648 OA
ATOM     26  O3  <0> d          51.869  48.878  37.711  0.00  0.00    -0.389 OA
ATOM     27  H26 <0> d          52.369  48.075  37.506  0.00  0.00     0.210 HD
ENDMDL
MODEL 1
REMARK VINA RESULT:      -9.4      0.000      0.000
ATOM      1  C1  <0> d          50.530  48.191  39.637  0.00  0.00     0.021 C 
ATOM      2  C2  <0> d          51.200  48.849  40.842  0.00  0.00    -0.012 C 
ATOM      3  C3  <0> d          52.381  47.972  41.293  0.00  0.00     0.022 C 
ATOM      4  C4  <0> d          51.893  46.580  41.685  0.00  0.00     0.084 C 
ATOM      5  C5  <0> d          50.784  46.690  42.696  0.00  0.00     0.149 C 
ATOM      6  O1  <0> d          50.539  45.747  43.425  0.00  0.00    -0.293 OA
ATOM      7  C6  <0> d          50.034  47.868  42.814  0.00  0.00     0.058 C 
ATOM      8  C7  <0> d          50.207  48.918  41.975  0.00  0.00    -0.046 C 
ATOM      9  C8  <0> d          49.401  50.119  42.168  0.00  0.00     0.004 C 
ATOM     10  C9  <0> d          49.594  51.203  41.435  0.00  0.00    -0.021 C 
ATOM     11  C10 <0> d          50.672  51.318  40.395  0.00  0.00     0.018 C 
ATOM     12  C11 <0> d          51.730  50.237  40.511  0.00  0.00     0.006 C 
ATOM     13  C12 <0> d          52.713  50.206  39.351  0.00  0.00     0.007 C 
ATOM     14  C13 <0> d          52.104  50.410  37.963  0.00  0.00     0.013 C 
ATOM     15  C14 <0> d          51.198  51.618  37.973  0.00  0.00    -0.009 C 
ATOM     16  C15 <0> d          50.079  51.374  39.010  0.00  0.00     0.005 C 
ATOM     17  C16 <0> d          49.129  52.550  38.732  0.00  0.00     0.009 C 
ATOM     18  C17 <0> d          49.139  52.656  37.185  0.00  0.00     0.039 C 
ATOM     19  C18 <0> d          50.412  51.920  36.695  0.00  0.00     0.066 C 
ATOM     20  C22 <0> d          52.017  52.868  38.320  0.00  0.00     0.019 C 
ATOM     21  C19 <0> d          50.031  50.645  35.950  0.00  0.00     0.049 C 
ATOM     22  C20 <0> d          50.733  50.618  34.592  0.00  0.00     0.116 C 
ATOM     23  C21 <0> d          51.615  49.398  34.506  0.00  0.00     0.172 C 
ATOM     24  O2  <0> d          51.139  48.330  34.206  0.00  0.00    -0.648 OA
ATOM     25  O4  <0> d          52.928  49.501  34.761  0.00  0.00    -0.648 OA
ATOM     26  O3  <0> d          51.180  52.780  35.849  0.00  0.00    -0.389 OA
ATOM     27  H26 <0> d          51.044  53.722  36.019  0.00  0.00     0.210 HD
ENDMDL
MODEL 2
REMARK VINA RESULT:      -9.4      1.859      3.889
ATOM      1  C1  <0> d          51.938  48.704  41.098  0.00  0.00     0.021 C 
ATOM      2  C2  <0> d          50.811  47.698  41.323  0.00  0.00    -0.012 C 
ATOM      3  C3  <0> d          50.112  48.028  42.654  0.00  0.00     0.022 C 
ATOM      4  C4  <0> d          51.102  47.943  43.812  0.00  0.00     0.084 C 
ATOM      5  C5  <0> d          51.801  46.610  43.794  0.00  0.00     0.149 C 
ATOM      6  O1  <0> d          52.304  46.182  44.816  0.00  0.00    -0.293 OA
ATOM      7  C6  <0> d          51.873  45.853  42.617  0.00  0.00     0.058 C 
ATOM      8  C7  <0> d          51.404  46.316  41.434  0.00  0.00    -0.046 C 
ATOM      9  C8  <0> d          51.498  45.466  40.252  0.00  0.00     0.004 C 
ATOM     10  C9  <0> d          50.975  45.834  39.094  0.00  0.00    -0.021 C 
ATOM     11  C10 <0> d          50.203  47.109  38.902  0.00  0.00     0.018 C 
ATOM     12  C11 <0> d          49.773  47.747  40.209  0.00  0.00     0.006 C 
ATOM     13  C12 <0> d          49.176  49.137  40.053  0.00  0.00     0.007 C 
ATOM     14  C13 <0> d          49.885  50.052  39.054  0.00  0.00     0.013 C 
ATOM     15  C14 <0> d          50.100  49.321  37.751  0.00  0.00    -0.009 C 
ATOM     16  C15 <0> d          50.968  48.074  38.033  0.00  0.00     0.005 C 
ATOM     17  C16 <0> d          51.293  47.587  36.612  0.00  0.00     0.009 C 
ATOM     18  C17 <0> d          51.548  48.905  35.835  0.00  0.00     0.039 C 
ATOM     19  C18 <0> d          50.895  50.043  36.660  0.00  0.00     0.066 C 
ATOM     20  C22 <0> d          48.742  48.931  37.154  0.00  0.00     0.019 C 
ATOM     21  C19 <0> d          51.969  50.952  37.248  0.00  0.00     0.049 C 
ATOM     22  C20 <0> d          51.621  52.411  36.952  0.00  0.00     0.116 C 
ATOM     23  C21 <0> d          52.469  53.315  37.809  0.00  0.00     0.172 C 
ATOM     24  O2  <0> d          52.752  54.423  37.422  0.00  0.00    -0.648 OA
ATOM     25  O4  <0> d          52.909  52.888  39.003  0.00  0.00    -0.648 OA
ATOM     26  O3  <0> d          50.003  50.797  35.834  0.00  0.00    -0.389 OA
ATOM     27  H26 <0> d          49.913  51.724  36.096  0.00  0.00     0.210 HD
ENDMDL
MODEL 3
REMARK VINA RESULT:      -9.3      2.610      6.989
ATOM      1  C1  <0> d          49.712  48.443  39.167  0.00  0.00     0.021 C 
ATOM      2  C2  <0> d          51.073  47.884  38.755  0.00  0.00    -0.012 C 
ATOM      3  C3  <0> d          51.719  48.847  37.743  0.00  0.00     0.022 C 
ATOM      4  C4  <0> d          50.838  48.991  36.506  0.00  0.00     0.084 C 
ATOM      5  C5  <0> d          50.513  47.632  35.945  0.00  0.00     0.149 C 
ATOM      6  O1  <0> d          50.185  47.526  34.779  0.00  0.00    -0.293 OA
ATOM      7  C6  <0> d          50.591  46.486  36.749  0.00  0.00     0.058 C 
ATOM      8  C7  <0> d          50.869  46.554  38.073  0.00  0.00    -0.046 C 
ATOM      9  C8  <0> d          50.949  45.319  38.845  0.00  0.00     0.004 C 
ATOM     10  C9  <0> d          51.307  45.323  40.118  0.00  0.00    -0.021 C 
ATOM     11  C10 <0> d          51.707  46.566  40.862  0.00  0.00     0.018 C 
ATOM     12  C11 <0> d          52.011  47.736  39.945  0.00  0.00     0.006 C 
ATOM     13  C12 <0> d          52.215  49.056  40.673  0.00  0.00     0.007 C 
ATOM     14  C13 <0> d          51.247  49.332  41.824  0.00  0.00     0.013 C 
ATOM     15  C14 <0> d          51.175  48.129  42.733  0.00  0.00    -0.009 C 
ATOM     16  C15 <0> d          50.678  46.924  41.903  0.00  0.00     0.005 C 
ATOM     17  C16 <0> d          50.430  45.870  42.994  0.00  0.00     0.009 C 
ATOM     18  C17 <0> d          49.804  46.694  44.149  0.00  0.00     0.039 C 
ATOM     19  C18 <0> d          50.171  48.178  43.888  0.00  0.00     0.066 C 
ATOM     20  C22 <0> d          52.560  47.858  43.334  0.00  0.00     0.019 C 
ATOM     21  C19 <0> d          48.923  48.974  43.522  0.00  0.00     0.049 C 
ATOM     22  C20 <0> d          48.685  50.061  44.570  0.00  0.00     0.116 C 
ATOM     23  C21 <0> d          48.925  51.415  43.955  0.00  0.00     0.172 C 
ATOM     24  O2  <0> d          48.468  51.674  42.868  0.00  0.00    -0.648 OA
ATOM     25  O4  <0> d          49.646  52.334  44.616  0.00  0.00    -0.648 OA
ATOM     26  O3  <0> d          50.796  48.738  45.046  0.00  0.00    -0.389 OA
ATOM     27  H26 <0> d          50.411  49.578  45.333  0.00  0.00     0.210 HD
ENDMDL
MODEL 4
REMARK VINA RESULT:      -9.2      2.721      6.815
ATOM      1  C1  <0> d          50.121  50.331  37.967  0.00  0.00     0.021 C 
ATOM      2  C2  <0> d          51.141  49.248  37.619  0.00  0.00    -0.012 C 
ATOM      3  C3  <0> d          52.260  49.876  36.771  0.00  0.00     0.022 C 
ATOM      4  C4  <0> d          51.689  50.462  35.483  0.00  0.00     0.084 C 
ATOM      5  C5  <0> d          50.876  49.421  34.761  0.00  0.00     0.149 C 
ATOM      6  O1  <0> d          50.680  49.533  33.566  0.00  0.00    -0.293 OA
ATOM      7  C6  <0> d          50.348  48.319  35.448  0.00  0.00     0.058 C 
ATOM      8  C7  <0> d          50.463  48.186  36.791  0.00  0.00    -0.046 C 
ATOM      9  C8  <0> d          49.902  47.004  37.437  0.00  0.00     0.004 C 
ATOM     10  C9  <0> d          50.067  46.782  38.731  0.00  0.00    -0.021 C 
ATOM     11  C10 <0> d          50.874  47.676  39.628  0.00  0.00     0.018 C 
ATOM     12  C11 <0> d          51.768  48.635  38.865  0.00  0.00     0.006 C 
ATOM     13  C12 <0> d          52.436  49.687  39.738  0.00  0.00     0.007 C 
ATOM     14  C13 <0> d          51.551  50.303  40.823  0.00  0.00     0.013 C 
ATOM     15  C14 <0> d          50.852  49.210  41.596  0.00  0.00    -0.009 C 
ATOM     16  C15 <0> d          49.985  48.398  40.608  0.00  0.00     0.005 C 
ATOM     17  C16 <0> d          49.171  47.507  41.560  0.00  0.00     0.009 C 
ATOM     18  C17 <0> d          48.831  48.461  42.735  0.00  0.00     0.039 C 
ATOM     19  C18 <0> d          49.837  49.639  42.659  0.00  0.00     0.066 C 
ATOM     20  C22 <0> d          51.896  48.321  42.284  0.00  0.00     0.019 C 
ATOM     21  C19 <0> d          49.116  50.925  42.269  0.00  0.00     0.049 C 
ATOM     22  C20 <0> d          48.091  51.282  43.346  0.00  0.00     0.116 C 
ATOM     23  C21 <0> d          48.542  52.519  44.079  0.00  0.00     0.172 C 
ATOM     24  O2  <0> d          49.647  52.564  44.565  0.00  0.00    -0.648 OA
ATOM     25  O4  <0> d          47.716  53.571  44.190  0.00  0.00    -0.648 OA
ATOM     26  O3  <0> d          50.496  49.801  43.918  0.00  0.00    -0.389 OA
ATOM     27  H26 <0> d          49.903  50.034  44.645  0.00  0.00     0.210 HD
ENDMDL
MODEL 5
REMARK VINA RESULT:      -9.1      2.476      7.432
ATOM      1  C1  <0> d          49.773  48.541  39.217  0.00  0.00     0.021 C 
ATOM      2  C2  <0> d          51.154  48.022  38.819  0.00  0.00    -0.012 C 
ATOM      3  C3  <0> d          51.836  49.067  37.918  0.00  0.00     0.022 C 
ATOM      4  C4  <0> d          51.007  49.309  36.661  0.00  0.00     0.084 C 
ATOM      5  C5  <0> d          50.715  48.000  35.977  0.00  0.00     0.149 C 
ATOM      6  O1  <0> d          50.437  47.989  34.793  0.00  0.00    -0.293 OA
ATOM      7  C6  <0> d          50.766  46.792  36.687  0.00  0.00     0.058 C 
ATOM      8  C7  <0> d          50.987  46.752  38.023  0.00  0.00    -0.046 C 
ATOM      9  C8  <0> d          51.043  45.458  38.693  0.00  0.00     0.004 C 
ATOM     10  C9  <0> d          51.346  45.359  39.977  0.00  0.00    -0.021 C 
ATOM     11  C10 <0> d          51.706  46.537  40.836  0.00  0.00     0.018 C 
ATOM     12  C11 <0> d          52.042  47.779  40.033  0.00  0.00     0.006 C 
ATOM     13  C12 <0> d          52.206  49.036  40.873  0.00  0.00     0.007 C 
ATOM     14  C13 <0> d          51.188  49.214  42.001  0.00  0.00     0.013 C 
ATOM     15  C14 <0> d          51.086  47.940  42.805  0.00  0.00    -0.009 C 
ATOM     16  C15 <0> d          50.632  46.806  41.859  0.00  0.00     0.005 C 
ATOM     17  C16 <0> d          50.345  45.665  42.848  0.00  0.00     0.009 C 
ATOM     18  C17 <0> d          49.665  46.390  44.039  0.00  0.00     0.039 C 
ATOM     19  C18 <0> d          50.033  47.891  43.916  0.00  0.00     0.066 C 
ATOM     20  C22 <0> d          52.446  47.625  43.441  0.00  0.00     0.019 C 
ATOM     21  C19 <0> d          48.797  48.711  43.563  0.00  0.00     0.049 C 
ATOM     22  C20 <0> d          48.285  49.428  44.813  0.00  0.00     0.116 C 
ATOM     23  C21 <0> d          47.011  48.774  45.282  0.00  0.00     0.172 C 
ATOM     24  O2  <0> d          46.432  47.996  44.562  0.00  0.00    -0.648 OA
ATOM     25  O4  <0> d          46.523  49.054  46.500  0.00  0.00    -0.648 OA
ATOM     26  O3  <0> d          50.605  48.357  45.142  0.00  0.00    -0.389 OA
ATOM     27  H26 <0> d          51.522  48.654  45.060  0.00  0.00     0.210 HD
ENDMDL
MODEL 6
REMARK VINA RESULT:      -9.0      5.907      9.056
ATOM      1  C1  <0> d          44.527  49.934  44.959  0.00  0.00     0.021 C 
ATOM      2  C2  <0> d          44.234  51.276  44.290  0.00  0.00    -0.012 C 
ATOM      3  C3  <0> d          43.209  52.042  45.144  0.00  0.00     0.022 C 
ATOM      4  C4  <0> d          41.914  51.246  45.264  0.00  0.00     0.084 C 
ATOM      5  C5  <0> d          41.415  50.864  43.896  0.00  0.00     0.149 C 
ATOM      6  O1  <0> d          40.239  50.598  43.738  0.00  0.00    -0.293 OA
ATOM      7  C6  <0> d          42.289  50.818  42.801  0.00  0.00     0.058 C 
ATOM      8  C7  <0> d          43.621  51.023  42.935  0.00  0.00    -0.046 C 
ATOM      9  C8  <0> d          44.468  50.976  41.748  0.00  0.00     0.004 C 
ATOM     10  C9  <0> d          45.759  51.258  41.811  0.00  0.00    -0.021 C 
ATOM     11  C10 <0> d          46.451  51.697  43.070  0.00  0.00     0.018 C 
ATOM     12  C11 <0> d          45.487  52.132  44.158  0.00  0.00     0.006 C 
ATOM     13  C12 <0> d          46.146  52.381  45.506  0.00  0.00     0.007 C 
ATOM     14  C13 <0> d          47.217  51.369  45.915  0.00  0.00     0.013 C 
ATOM     15  C14 <0> d          48.190  51.164  44.779  0.00  0.00    -0.009 C 
ATOM     16  C15 <0> d          47.404  50.636  43.558  0.00  0.00     0.005 C 
ATOM     17  C16 <0> d          48.537  50.256  42.592  0.00  0.00     0.009 C 
ATOM     18  C17 <0> d          49.601  49.620  43.526  0.00  0.00     0.039 C 
ATOM     19  C18 <0> d          49.275  50.100  44.964  0.00  0.00     0.066 C 
ATOM     20  C22 <0> d          48.890  52.491  44.460  0.00  0.00     0.019 C 
ATOM     21  C19 <0> d          48.786  48.932  45.813  0.00  0.00     0.049 C 
ATOM     22  C20 <0> d          49.493  47.650  45.373  0.00  0.00     0.116 C 
ATOM     23  C21 <0> d          49.550  46.684  46.529  0.00  0.00     0.172 C 
ATOM     24  O2  <0> d          48.733  46.755  47.415  0.00  0.00    -0.648 OA
ATOM     25  O4  <0> d          50.508  45.745  46.571  0.00  0.00    -0.648 OA
ATOM     26  O3  <0> d          50.435  50.693  45.556  0.00  0.00    -0.389 OA
ATOM     27  H26 <0> d          51.121  50.937  44.919  0.00  0.00     0.210 HD
ENDMDL
MODEL 7
REMARK VINA RESULT:      -8.8      2.170      4.077
ATOM      1  C1  <0> d          50.030  50.128  41.286  0.00  0.00     0.021 C 
ATOM      2  C2  <0> d          49.779  48.809  42.017  0.00  0.00    -0.012 C 
ATOM      3  C3  <0> d          48.564  48.981  42.945  0.00  0.00     0.022 C 
ATOM      4  C4  <0> d          48.826  50.082  43.968  0.00  0.00     0.084 C 
ATOM      5  C5  <0> d          50.121  49.819  44.688  0.00  0.00     0.149 C 
ATOM      6  O1  <0> d          50.314  50.317  45.781  0.00  0.00    -0.293 OA
ATOM      7  C6  <0> d          51.106  49.001  44.117  0.00  0.00     0.058 C 
ATOM      8  C7  <0> d          50.981  48.488  42.870  0.00  0.00    -0.046 C 
ATOM      9  C8  <0> d          52.039  47.631  42.347  0.00  0.00     0.004 C 
ATOM     10  C9  <0> d          51.924  47.032  41.172  0.00  0.00    -0.021 C 
ATOM     11  C10 <0> d          50.699  47.132  40.308  0.00  0.00     0.018 C 
ATOM     12  C11 <0> d          49.490  47.669  41.050  0.00  0.00     0.006 C 
ATOM     13  C12 <0> d          48.299  47.975  40.154  0.00  0.00     0.007 C 
ATOM     14  C13 <0> d          48.631  48.650  38.823  0.00  0.00     0.013 C 
ATOM     15  C14 <0> d          49.748  47.904  38.134  0.00  0.00    -0.009 C 
ATOM     16  C15 <0> d          50.986  47.924  39.058  0.00  0.00     0.005 C 
ATOM     17  C16 <0> d          52.078  47.356  38.138  0.00  0.00     0.009 C 
ATOM     18  C17 <0> d          51.764  48.013  36.768  0.00  0.00     0.039 C 
ATOM     19  C18 <0> d          50.292  48.496  36.831  0.00  0.00     0.066 C 
ATOM     20  C22 <0> d          49.297  46.468  37.837  0.00  0.00     0.019 C 
ATOM     21  C19 <0> d          50.237  50.020  36.834  0.00  0.00     0.049 C 
ATOM     22  C20 <0> d          51.437  50.576  36.068  0.00  0.00     0.116 C 
ATOM     23  C21 <0> d          51.129  51.973  35.594  0.00  0.00     0.172 C 
ATOM     24  O2  <0> d          50.700  52.151  34.479  0.00  0.00    -0.648 OA
ATOM     25  O4  <0> d          51.329  53.019  36.411  0.00  0.00    -0.648 OA
ATOM     26  O3  <0> d          49.558  47.974  35.721  0.00  0.00    -0.389 OA
ATOM     27  H26 <0> d          49.948  47.180  35.329  0.00  0.00     0.210 HD
ENDMDL
MODEL 8
REMARK VINA RESULT:      -8.7      1.826      2.170
ATOM      1  C1  <0> d          51.277  47.275  40.444  0.00  0.00     0.021 C 
ATOM      2  C2  <0> d          50.950  48.326  41.504  0.00  0.00    -0.012 C 
ATOM      3  C3  <0> d          51.995  48.236  42.630  0.00  0.00     0.022 C 
ATOM      4  C4  <0> d          51.971  46.851  43.269  0.00  0.00     0.084 C 
ATOM      5  C5  <0> d          50.570  46.505  43.697  0.00  0.00     0.149 C 
ATOM      6  O1  <0> d          50.394  45.668  44.561  0.00  0.00    -0.293 OA
ATOM      7  C6  <0> d          49.465  47.143  43.116  0.00  0.00     0.058 C 
ATOM      8  C7  <0> d          49.596  48.021  42.093  0.00  0.00    -0.046 C 
ATOM      9  C8  <0> d          48.402  48.658  41.548  0.00  0.00     0.004 C 
ATOM     10  C9  <0> d          48.484  49.589  40.612  0.00  0.00    -0.021 C 
ATOM     11  C10 <0> d          49.786  50.106  40.070  0.00  0.00     0.018 C 
ATOM     12  C11 <0> d          50.979  49.738  40.933  0.00  0.00     0.006 C 
ATOM     13  C12 <0> d          52.324  50.067  40.304  0.00  0.00     0.007 C 
ATOM     14  C13 <0> d          52.448  49.759  38.811  0.00  0.00     0.013 C 
ATOM     15  C14 <0> d          51.262  50.329  38.070  0.00  0.00    -0.009 C 
ATOM     16  C15 <0> d          49.980  49.680  38.637  0.00  0.00     0.005 C 
ATOM     17  C16 <0> d          48.913  50.165  37.642  0.00  0.00     0.009 C 
ATOM     18  C17 <0> d          49.636  50.068  36.273  0.00  0.00     0.039 C 
ATOM     19  C18 <0> d          51.157  50.027  36.573  0.00  0.00     0.066 C 
ATOM     20  C22 <0> d          51.238  51.854  38.239  0.00  0.00     0.019 C 
ATOM     21  C19 <0> d          51.726  48.655  36.229  0.00  0.00     0.049 C 
ATOM     22  C20 <0> d          50.595  47.735  35.767  0.00  0.00     0.116 C 
ATOM     23  C21 <0> d          50.407  46.626  36.770  0.00  0.00     0.172 C 
ATOM     24  O2  <0> d          49.320  46.432  37.259  0.00  0.00    -0.648 OA
ATOM     25  O4  <0> d          51.448  45.854  37.119  0.00  0.00    -0.648 OA
ATOM     26  O3  <0> d          51.830  51.046  35.827  0.00  0.00    -0.389 OA
ATOM     27  H26 <0> d          51.630  51.945  36.121  0.00  0.00     0.210 HD
ENDMDL
MODEL 9
REMARK VINA RESULT:      -8.6      2.701      7.922
ATOM      1  C1  <0> d          48.893  47.632  40.705  0.00  0.00     0.021 C 
ATOM      2  C2  <0> d          49.842  48.818  40.537  0.00  0.00    -0.012 C 
ATOM      3  C3  <0> d          49.178  49.858  39.619  0.00  0.00     0.022 C 
ATOM      4  C4  <0> d          48.883  49.251  38.251  0.00  0.00     0.084 C 
ATOM      5  C5  <0> d          50.133  48.634  37.682  0.00  0.00     0.149 C 
ATOM      6  O1  <0> d          50.228  48.467  36.481  0.00  0.00    -0.293 OA
ATOM      7  C6  <0> d          51.191  48.255  38.519  0.00  0.00     0.058 C 
ATOM      8  C7  <0> d          51.107  48.340  39.869  0.00  0.00    -0.046 C 
ATOM      9  C8  <0> d          52.255  47.943  40.677  0.00  0.00     0.004 C 
ATOM     10  C9  <0> d          52.257  48.092  41.991  0.00  0.00    -0.021 C 
ATOM     11  C10 <0> d          51.126  48.720  42.755  0.00  0.00     0.018 C 
ATOM     12  C11 <0> d          50.161  49.484  41.869  0.00  0.00     0.006 C 
ATOM     13  C12 <0> d          48.902  49.952  42.583  0.00  0.00     0.007 C 
ATOM     14  C13 <0> d          48.280  48.945  43.552  0.00  0.00     0.013 C 
ATOM     15  C14 <0> d          49.343  48.392  44.471  0.00  0.00    -0.009 C 
ATOM     16  C15 <0> d          50.416  47.696  43.604  0.00  0.00     0.005 C 
ATOM     17  C16 <0> d          51.275  46.993  44.668  0.00  0.00     0.009 C 
ATOM     18  C17 <0> d          50.224  46.469  45.681  0.00  0.00     0.039 C 
ATOM     19  C18 <0> d          48.928  47.285  45.443  0.00  0.00     0.066 C 
ATOM     20  C22 <0> d          49.948  49.534  45.298  0.00  0.00     0.019 C 
ATOM     21  C19 <0> d          47.841  46.391  44.855  0.00  0.00     0.049 C 
ATOM     22  C20 <0> d          47.401  45.367  45.901  0.00  0.00     0.116 C 
ATOM     23  C21 <0> d          47.247  44.017  45.250  0.00  0.00     0.172 C 
ATOM     24  O2  <0> d          46.338  43.818  44.481  0.00  0.00    -0.648 OA
ATOM     25  O4  <0> d          48.121  43.036  45.524  0.00  0.00    -0.648 OA
ATOM     26  O3  <0> d          48.482  47.866  46.672  0.00  0.00    -0.389 OA
ATOM     27  H26 <0> d          47.526  47.814  46.808  0.00  0.00     0.210 HD
ENDMDL
MODEL 10
REMARK VINA RESULT:      -8.5      8.063     10.984
ATOM      1  C1  <0> d          42.432  53.162  45.628  0.00  0.00     0.021 C 
ATOM      2  C2  <0> d          41.360  52.399  44.851  0.00  0.00    -0.012 C 
ATOM      3  C3  <0> d          40.608  53.387  43.943  0.00  0.00     0.022 C 
ATOM      4  C4  <0> d          39.944  54.478  44.778  0.00  0.00     0.084 C 
ATOM      5  C5  <0> d          39.094  53.857  45.854  0.00  0.00     0.149 C 
ATOM      6  O1  <0> d          38.188  54.499  46.351  0.00  0.00    -0.293 OA
ATOM      7  C6  <0> d          39.329  52.544  46.286  0.00  0.00     0.058 C 
ATOM      8  C7  <0> d          40.373  51.813  45.828  0.00  0.00    -0.046 C 
ATOM      9  C8  <0> d          40.546  50.446  46.310  0.00  0.00     0.004 C 
ATOM     10  C9  <0> d          41.494  49.660  45.828  0.00  0.00    -0.021 C 
ATOM     11  C10 <0> d          42.428  50.070  44.725  0.00  0.00     0.018 C 
ATOM     12  C11 <0> d          41.961  51.305  43.977  0.00  0.00     0.006 C 
ATOM     13  C12 <0> d          42.984  51.861  42.999  0.00  0.00     0.007 C 
ATOM     14  C13 <0> d          44.431  51.876  43.494  0.00  0.00     0.013 C 
ATOM     15  C14 <0> d          44.792  50.526  44.065  0.00  0.00    -0.009 C 
ATOM     16  C15 <0> d          43.835  50.228  45.242  0.00  0.00     0.005 C 
ATOM     17  C16 <0> d          44.470  48.970  45.855  0.00  0.00     0.009 C 
ATOM     18  C17 <0> d          45.991  49.263  45.771  0.00  0.00     0.039 C 
ATOM     19  C18 <0> d          46.173  50.380  44.711  0.00  0.00     0.066 C 
ATOM     20  C22 <0> d          44.677  49.459  42.969  0.00  0.00     0.019 C 
ATOM     21  C19 <0> d          46.626  51.674  45.379  0.00  0.00     0.049 C 
ATOM     22  C20 <0> d          48.152  51.760  45.340  0.00  0.00     0.116 C 
ATOM     23  C21 <0> d          48.567  53.038  44.657  0.00  0.00     0.172 C 
ATOM     24  O2  <0> d          47.733  53.750  44.152  0.00  0.00    -0.648 OA
ATOM     25  O4  <0> d          49.863  53.384  44.612  0.00  0.00    -0.648 OA
ATOM     26  O3  <0> d          47.124  49.969  43.725  0.00  0.00    -0.389 OA
ATOM     27  H26 <0> d          47.359  50.662  43.092  0.00  0.00     0.210 HD
ENDMDL
