REMARK  10 active torsions:
REMARK  status: ('A' for Active; 'I' for Inactive)
REMARK    1  A    between atoms: C3_3  and  N2_17 
REMARK    2  A    between atoms: C6_6  and  C7_7 
REMARK       I    between atoms: C7_7  and  N1_9 
REMARK    3  A    between atoms: N1_9  and  C8_10 
REMARK    4  A    between atoms: C8_10  and  C9_11 
REMARK    5  A    between atoms: C8_10  and  C12_15 
REMARK    6  A    between atoms: C9_11  and  C10_12 
REMARK    7  A    between atoms: C10_12  and  C11_13 
REMARK    8  A    between atoms: N2_17  and  C13_18 
REMARK    9  A    between atoms: C13_18  and  C14_19 
REMARK   10  A    between atoms: C19_29  and  N7_31 
ROOT
ATOM      1  C1  <0> d           1.186   2.106   0.002  0.00  0.00     0.019 A 
ATOM      2  C2  <0> d           2.384   1.430  -0.013  0.00  0.00     0.030 A 
ATOM      3  C3  <0> d           2.400   0.038  -0.021  0.00  0.00     0.028 A 
ATOM      4  C4  <0> d           1.204  -0.674  -0.013  0.00  0.00     0.030 A 
ATOM      5  C5  <0> d           0.002  -0.004   0.002  0.00  0.00     0.019 A 
ATOM      6  C6  <0> d          -0.017   1.394   0.010  0.00  0.00     0.032 A 
ENDROOT
BRANCH   3   7
ATOM      7  N2  <0> d           3.612  -0.642  -0.036  0.00  0.00    -0.384 N 
ATOM      8  H12 <0> d           3.624  -1.612  -0.041  0.00  0.00     0.160 HD
BRANCH   7   9
ATOM      9  C13 <0> d           4.872   0.106  -0.044  0.00  0.00     0.180 C 
BRANCH   9  10
ATOM     10  C14 <0> d           6.029  -0.859  -0.060  0.00  0.00     0.070 A 
ATOM     11  N4  <0> d           6.482  -1.356   1.073  0.00  0.00    -0.241 NA
ATOM     12  C17 <0> d           7.498  -2.209   1.056  0.00  0.00     0.174 A 
ATOM     13  C16 <0> d           8.098  -2.573  -0.172  0.00  0.00     0.202 A 
ATOM     14  C18 <0> d           8.038  -2.797   2.293  0.00  0.00     0.292 A 
ATOM     15  N3  <0> d           7.629  -2.056  -1.308  0.00  0.00    -0.237 NA
ATOM     16  N6  <0> d           9.130  -3.437  -0.166  0.00  0.00    -0.043 NA
ATOM     17  C15 <0> d           6.615  -1.214  -1.271  0.00  0.00     0.147 A 
ATOM     18  C19 <0> d           9.595  -3.949   0.947  0.00  0.00     0.703 A 
ATOM     19  N5  <0> d           9.079  -3.654   2.175  0.00  0.00    -0.152 N 
ATOM     20  H2  <0> d           9.472  -4.074   2.993  0.00  0.00     0.187 HD
ATOM     21  O4  <0> d           7.566  -2.524   3.381  0.00  0.00    -0.265 OA
BRANCH  18  22
ATOM     22  N7  <0> d          10.649  -4.822   0.874  0.00  0.00    -0.233 N 
ATOM     23  H16 <0> d          11.010  -5.214   1.684  0.00  0.00     0.174 HD
ATOM     24  H17 <0> d          11.033  -5.047   0.013  0.00  0.00     0.174 HD
ENDBRANCH  18  22
ENDBRANCH   9  10
ENDBRANCH   7   9
ENDBRANCH   3   7
BRANCH   6  25
ATOM     25  C7  <0> d          -1.304   2.115   0.020  0.00  0.00     0.252 C 
ATOM     26  O1  <0> d          -2.349   1.494   0.021  0.00  0.00    -0.268 OA
ATOM     27  N1  <0> d          -1.320   3.463   0.027  0.00  0.00    -0.342 N 
ATOM     28  H7  <0> d          -0.486   3.958   0.026  0.00  0.00     0.163 HD
BRANCH  27  29
ATOM     29  C8  <0> d          -2.598   4.180   0.037  0.00  0.00     0.186 C 
BRANCH  29  30
ATOM     30  C9  <0> d          -2.406   5.573  -0.566  0.00  0.00     0.046 C 
BRANCH  30  31
ATOM     31  C10 <0> d          -2.027   5.442  -2.042  0.00  0.00     0.116 C 
BRANCH  31  32
ATOM     32  C11 <0> d          -1.838   6.814  -2.636  0.00  0.00     0.172 C 
ATOM     33  O2  <0> d          -1.991   7.796  -1.949  0.00  0.00    -0.648 OA
ATOM     34  O5  <0> d          -1.500   6.945  -3.929  0.00  0.00    -0.648 OA
ENDBRANCH  31  32
ENDBRANCH  30  31
ENDBRANCH  29  30
BRANCH  29  35
ATOM     35  C12 <0> d          -3.090   4.310   1.456  0.00  0.00     0.196 C 
ATOM     36  O3  <0> d          -2.440   3.851   2.365  0.00  0.00    -0.646 OA
ATOM     37  O6  <0> d          -4.250   4.936   1.709  0.00  0.00    -0.646 OA
ENDBRANCH  29  35
ENDBRANCH  27  29
ENDBRANCH   6  25
TORSDOF 10
