REMARK  4 active torsions:
REMARK  status: ('A' for Active; 'I' for Inactive)
REMARK    1  A    between atoms: C18_19  and  C19_20 
REMARK    2  A    between atoms: C18_19  and  O3_24 
REMARK    3  A    between atoms: C19_20  and  C20_21 
REMARK    4  A    between atoms: C20_21  and  C21_22 
ROOT
ATOM      1  C1  <0> d           3.925   5.179  -1.592  0.00  0.00     0.021 C 
ATOM      2  C2  <0> d           3.371   6.296  -0.709  0.00  0.00    -0.012 C 
ATOM      3  C3  <0> d           2.990   7.490  -1.600  0.00  0.00     0.022 C 
ATOM      4  C4  <0> d           4.213   8.005  -2.354  0.00  0.00     0.084 C 
ATOM      5  C5  <0> d           5.332   8.287  -1.388  0.00  0.00     0.149 C 
ATOM      6  O1  <0> d           6.217   9.060  -1.702  0.00  0.00    -0.293 OA
ATOM      7  C6  <0> d           5.363   7.676  -0.127  0.00  0.00     0.058 C 
ATOM      8  C7  <0> d           4.450   6.746   0.244  0.00  0.00    -0.046 C 
ATOM      9  C8  <0> d           4.535   6.163   1.579  0.00  0.00     0.004 C 
ATOM     10  C9  <0> d           3.617   5.320   2.022  0.00  0.00    -0.021 C 
ATOM     11  C10 <0> d           2.399   4.931   1.234  0.00  0.00     0.018 C 
ATOM     12  C11 <0> d           2.132   5.852   0.058  0.00  0.00     0.006 C 
ATOM     13  C12 <0> d           1.034   5.365  -0.874  0.00  0.00     0.007 C 
ATOM     14  C13 <0> d           1.043   3.866  -1.178  0.00  0.00     0.013 C 
ATOM     15  C14 <0> d           1.155   3.083   0.108  0.00  0.00    -0.009 C 
ATOM     16  C15 <0> d           2.473   3.487   0.807  0.00  0.00     0.005 C 
ATOM     17  C16 <0> d           2.559   2.455   1.942  0.00  0.00     0.009 C 
ATOM     18  C17 <0> d           2.073   1.145   1.268  0.00  0.00     0.039 C 
ATOM     19  C18 <0> d           1.288   1.562  -0.002  0.00  0.00     0.066 C 
ATOM     20  C22 <0> d          -0.060   3.379   0.996  0.00  0.00     0.019 C 
ENDROOT
BRANCH  19  21
ATOM     21  C19 <0> d           2.053   1.149  -1.255  0.00  0.00     0.049 C 
BRANCH  21  22
ATOM     22  C20 <0> d           2.191  -0.374  -1.290  0.00  0.00     0.116 C 
BRANCH  22  23
ATOM     23  C21 <0> d           2.947  -0.782  -2.528  0.00  0.00     0.172 C 
ATOM     24  O2  <0> d           3.336   0.059  -3.303  0.00  0.00    -0.648 OA
ATOM     25  O4  <0> d           3.188  -2.080  -2.769  0.00  0.00    -0.648 OA
ENDBRANCH  22  23
ENDBRANCH  21  22
ENDBRANCH  19  21
BRANCH  19  26
ATOM     26  O3  <0> d          -0.011   0.963   0.007  0.00  0.00    -0.389 OA
ATOM     27  H26 <0> d           0.002  -0.004   0.002  0.00  0.00     0.210 HD
ENDBRANCH  19  26
TORSDOF 4
