REMARK  10 active torsions:
REMARK  status: ('A' for Active; 'I' for Inactive)
REMARK    1  A    between atoms: C2_2  and  C3_3 
REMARK    2  A    between atoms: C2_2  and  N4_36 
REMARK    3  A    between atoms: C6_6  and  N3_34 
REMARK    4  A    between atoms: C7_7  and  O2_9 
REMARK    5  A    between atoms: O2_9  and  C8_10 
REMARK    6  A    between atoms: C9_11  and  N2_32 
REMARK    7  A    between atoms: C10_12  and  O5_20 
REMARK    8  A    between atoms: C11_13  and  O4_18 
REMARK    9  A    between atoms: C12_14  and  N1_29 
REMARK   10  A    between atoms: C13_15  and  O3_16 
ROOT
ATOM      1  C8  <0> d          -0.122  -0.409   0.354  0.00  0.00     0.188 C 
ATOM      2  C9  <0> d           0.467  -1.211   1.516  0.00  0.00     0.246 C 
ATOM      3  C10 <0> d           1.963  -0.913   1.634  0.00  0.00     0.182 C 
ATOM      4  C11 <0> d           2.167   0.581   1.889  0.00  0.00     0.184 C 
ATOM      5  C12 <0> d           1.578   1.383   0.727  0.00  0.00     0.247 C 
ATOM      6  C13 <0> d           0.082   1.085   0.609  0.00  0.00     0.182 C 
ENDROOT
BRANCH   1   7
ATOM      7  O2  <0> d          -1.520  -0.687   0.244  0.00  0.00    -0.349 OA
BRANCH   7   8
ATOM      8  C7  <0> d          -1.826  -1.811  -0.585  0.00  0.00     0.291 C 
ATOM      9  C6  <0> d          -3.300  -2.187  -0.411  0.00  0.00     0.238 C 
ATOM     10  C5  <0> d          -4.175  -1.017  -0.873  0.00  0.00     0.040 C 
ATOM     11  C4  <0> d          -3.829  -0.677  -2.326  0.00  0.00     0.036 C 
ATOM     12  C3  <0> d          -2.334  -0.359  -2.425  0.00  0.00     0.154 C 
ATOM     13  O1  <0> d          -1.579  -1.476  -1.952  0.00  0.00    -0.352 OA
BRANCH   9  14
ATOM     14  N3  <0> d          -3.564  -2.451   1.014  0.00  0.00    -0.070 N 
ATOM     15  H28 <0> d          -4.537  -2.725   1.143  0.00  0.00     0.274 HD
ATOM     16  H29 <0> d          -2.955  -3.195   1.350  0.00  0.00     0.274 HD
ATOM     17  H35 <0> d          -3.381  -1.598   1.555  0.00  0.00     0.274 HD
ENDBRANCH   9  14
BRANCH  12  18
ATOM     18  C2  <0> d          -1.969  -0.077  -3.884  0.00  0.00     0.208 C 
ATOM     19  C1  <0> d          -0.491   0.309  -3.974  0.00  0.00     0.042 C 
BRANCH  18  20
ATOM     20  N4  <0> d          -2.817   1.017  -4.388  0.00  0.00    -0.073 N 
ATOM     21  H30 <0> d          -2.694   1.849  -3.812  0.00  0.00     0.274 HD
ATOM     22  H31 <0> d          -2.572   1.234  -5.353  0.00  0.00     0.274 HD
ATOM     23  H36 <0> d          -3.801   0.726  -4.350  0.00  0.00     0.274 HD
ENDBRANCH  18  20
ENDBRANCH  12  18
ENDBRANCH   7   8
ENDBRANCH   1   7
BRANCH   6  24
ATOM     24  O3  <0> d          -0.574   1.455   1.823  0.00  0.00    -0.391 OA
ATOM     25  H18 <0> d          -1.528   1.294   1.820  0.00  0.00     0.210 HD
ENDBRANCH   6  24
BRANCH   2  26
ATOM     26  N2  <0> d          -0.204  -0.805   2.764  0.00  0.00    -0.070 N 
ATOM     27  H26 <0> d          -1.191  -1.054   2.727  0.00  0.00     0.274 HD
ATOM     28  H27 <0> d           0.232  -1.266   3.561  0.00  0.00     0.274 HD
ATOM     29  H34 <0> d          -0.119   0.212   2.878  0.00  0.00     0.274 HD
ENDBRANCH   2  26
BRANCH   5  30
ATOM     30  N1  <0> d           1.775   2.822   0.982  0.00  0.00    -0.070 N 
ATOM     31  C14 <0> d           1.801   3.568  -0.290  0.00  0.00     0.267 C 
ATOM     32  H32 <0> d           2.666   2.960   1.474  0.00  0.00     0.277 HD
ATOM     33  H33 <0> d           1.005   3.172   1.564  0.00  0.00     0.277 HD
ENDBRANCH   5  30
BRANCH   3  34
ATOM     34  O5  <0> d           2.513  -1.662   2.720  0.00  0.00    -0.391 OA
ATOM     35  H25 <0> d           2.419  -2.619   2.626  0.00  0.00     0.210 HD
ENDBRANCH   3  34
BRANCH   4  36
ATOM     36  O4  <0> d           1.511   0.951   3.104  0.00  0.00    -0.386 OA
ATOM     37  C15 <0> d           2.333   0.839   4.267  0.00  0.00     0.202 C 
ENDBRANCH   4  36
TORSDOF 10
