REMARK  19 active torsions:
REMARK  status: ('A' for Active; 'I' for Inactive)
REMARK    1  A    between atoms: C4_4  and  C7_7 
REMARK    2  A    between atoms: C7_7  and  C8_8 
REMARK    3  A    between atoms: C8_8  and  C9_9 
REMARK    4  A    between atoms: C9_9  and  C10_10 
REMARK    5  A    between atoms: C10_10  and  O1_11 
REMARK    6  A    between atoms: O1_11  and  C11_12 
REMARK    7  A    between atoms: C11_12  and  C12_13 
REMARK    8  A    between atoms: C12_13  and  C13_14 
REMARK    9  A    between atoms: C13_14  and  C14_15 
REMARK   10  A    between atoms: C14_15  and  C15_16 
REMARK   11  A    between atoms: C15_16  and  C16_17 
REMARK   12  A    between atoms: C16_17  and  N1_33 
REMARK   13  A    between atoms: C17_18  and  C18_19 
REMARK   14  A    between atoms: C17_18  and  N1_33 
REMARK   15  A    between atoms: C18_19  and  C19_20 
REMARK   16  A    between atoms: C18_19  and  O4_29 
REMARK   17  A    between atoms: C22_23  and  O3_28 
REMARK   18  A    between atoms: C23_24  and  C25_26 
REMARK   19  A    between atoms: C25_26  and  O2_27 
ROOT
ATOM      1  N1  <0> d           1.203  -3.374  -4.949  0.00  0.00    -0.072 N 
ATOM      2  H37 <0> d           0.184  -3.277  -4.872  0.00  0.00     0.277 HD
ATOM      3  H38 <0> d           1.500  -3.119  -5.898  0.00  0.00     0.277 HD
ENDROOT
BRANCH   1   4
ATOM      4  C16 <0> d           1.579  -4.776  -4.683  0.00  0.00     0.232 C 
BRANCH   4   5
ATOM      5  C15 <0> d           0.891  -5.683  -5.705  0.00  0.00     0.027 C 
BRANCH   5   6
ATOM      6  C14 <0> d           1.276  -7.139  -5.436  0.00  0.00     0.002 C 
BRANCH   6   7
ATOM      7  C13 <0> d           0.588  -8.046  -6.458  0.00  0.00     0.002 C 
BRANCH   7   8
ATOM      8  C12 <0> d           0.973  -9.502  -6.189  0.00  0.00     0.026 C 
BRANCH   8   9
ATOM      9  C11 <0> d           0.285 -10.409  -7.211  0.00  0.00     0.167 C 
BRANCH   9  10
ATOM     10  O1  <0> d           0.645 -11.768  -6.959  0.00  0.00    -0.391 OA
BRANCH  10  11
ATOM     11  C10 <0> d           0.052 -12.703  -7.863  0.00  0.00     0.167 C 
BRANCH  11  12
ATOM     12  C9  <0> d           0.504 -14.119  -7.502  0.00  0.00     0.027 C 
BRANCH  12  13
ATOM     13  C8  <0> d          -0.130 -15.120  -8.470  0.00  0.00     0.007 C 
BRANCH  13  14
ATOM     14  C7  <0> d           0.322 -16.536  -8.108  0.00  0.00     0.038 C 
BRANCH  14  15
ATOM     15  C4  <0> d          -0.303 -17.522  -9.061  0.00  0.00    -0.058 A 
ATOM     16  C3  <0> d           0.350 -17.861 -10.231  0.00  0.00     0.007 A 
ATOM     17  C2  <0> d          -0.223 -18.766 -11.106  0.00  0.00     0.001 A 
ATOM     18  C1  <0> d          -1.449 -19.331 -10.810  0.00  0.00     0.000 A 
ATOM     19  C6  <0> d          -2.102 -18.992  -9.640  0.00  0.00     0.001 A 
ATOM     20  C5  <0> d          -1.527 -18.091  -8.763  0.00  0.00     0.007 A 
ENDBRANCH  14  15
ENDBRANCH  13  14
ENDBRANCH  12  13
ENDBRANCH  11  12
ENDBRANCH  10  11
ENDBRANCH   9  10
ENDBRANCH   8   9
ENDBRANCH   7   8
ENDBRANCH   6   7
ENDBRANCH   5   6
ENDBRANCH   4   5
ENDBRANCH   1   4
BRANCH   1  21
ATOM     21  C17 <0> d           1.853  -2.476  -3.977  0.00  0.00     0.268 C 
BRANCH  21  22
ATOM     22  C18 <0> d           1.445  -1.032  -4.278  0.00  0.00     0.176 C 
BRANCH  22  23
ATOM     23  C19 <0> d           2.105  -0.107  -3.288  0.00  0.00    -0.027 A 
ATOM     24  C24 <0> d           1.425   0.286  -2.151  0.00  0.00     0.022 A 
ATOM     25  C23 <0> d           2.028   1.134  -1.242  0.00  0.00    -0.001 A 
ATOM     26  C22 <0> d           3.315   1.596  -1.475  0.00  0.00     0.074 A 
ATOM     27  C21 <0> d           3.998   1.197  -2.615  0.00  0.00     0.038 A 
ATOM     28  C20 <0> d           3.390   0.348  -3.520  0.00  0.00     0.012 A 
BRANCH  25  29
ATOM     29  C25 <0> d           1.286   1.562  -0.002  0.00  0.00     0.205 C 
BRANCH  29  30
ATOM     30  O2  <0> d          -0.011   0.963   0.007  0.00  0.00    -0.396 OA
ATOM     31  H34 <0> d           0.002  -0.004   0.002  0.00  0.00     0.209 HD
ENDBRANCH  29  30
ENDBRANCH  25  29
BRANCH  26  32
ATOM     32  O3  <0> d           3.909   2.435  -0.585  0.00  0.00    -0.360 OA
ATOM     33  H35 <0> d           4.409   1.983   0.108  0.00  0.00     0.217 HD
ENDBRANCH  26  32
ENDBRANCH  22  23
BRANCH  22  34
ATOM     34  O4  <0> d           1.857  -0.687  -5.601  0.00  0.00    -0.389 OA
ATOM     35  H36 <0> d           2.812  -0.749  -5.745  0.00  0.00     0.210 HD
ENDBRANCH  22  34
ENDBRANCH  21  22
ENDBRANCH   1  21
TORSDOF 19
